FRU_001_Limonene
     RDKit          3D

 26 26  0  0  0  0  0  0  0  0999 V2000
    3.5893   -0.0844    0.0478 C   0  0  0  0  0  0  0  0  0  0  0  0
    2.1052    0.1260   -0.0671 C   0  0  0  0  0  0  0  0  0  0  0  0
    1.4867   -0.0503   -1.2463 C   0  0  0  0  0  0  0  0  0  0  0  0
   -0.0052    0.1180   -1.3303 C   0  0  0  0  0  0  0  0  0  0  0  0
   -0.6967   -0.6146   -0.1553 C   0  0  0  0  0  0  0  0  0  0  0  0
    0.0208   -0.4083    1.2189 C   0  0  0  0  0  0  0  0  0  0  0  0
    1.2691    0.4900    1.1381 C   0  0  0  0  0  0  0  0  0  0  0  0
   -2.1673   -0.2285   -0.0838 C   0  0  0  0  0  0  0  0  0  0  0  0
   -3.1213   -1.1267   -0.3754 C   0  0  0  0  0  0  0  0  0  0  0  0
   -2.5785    1.1739    0.2884 C   0  0  0  0  0  0  0  0  0  0  0  0
    4.1204    0.6142   -0.6327 H   0  0  0  0  0  0  0  0  0  0  0  0
    3.9423    0.0998    1.0838 H   0  0  0  0  0  0  0  0  0  0  0  0
    3.8430   -1.1289   -0.2314 H   0  0  0  0  0  0  0  0  0  0  0  0
    2.0455   -0.3543   -2.1273 H   0  0  0  0  0  0  0  0  0  0  0  0
   -0.2316    1.2055   -1.3015 H   0  0  0  0  0  0  0  0  0  0  0  0
   -0.3726   -0.2833   -2.2995 H   0  0  0  0  0  0  0  0  0  0  0  0
   -0.6188   -1.7020   -0.3885 H   0  0  0  0  0  0  0  0  0  0  0  0
   -0.6680    0.0136    1.9829 H   0  0  0  0  0  0  0  0  0  0  0  0
    0.3373   -1.4017    1.6076 H   0  0  0  0  0  0  0  0  0  0  0  0
    0.9489    1.5503    1.0430 H   0  0  0  0  0  0  0  0  0  0  0  0
    1.8544    0.3958    2.0777 H   0  0  0  0  0  0  0  0  0  0  0  0
   -2.8705   -2.1441   -0.6590 H   0  0  0  0  0  0  0  0  0  0  0  0
   -4.1717   -0.8534   -0.3348 H   0  0  0  0  0  0  0  0  0  0  0  0
   -1.6956    1.8074    0.5136 H   0  0  0  0  0  0  0  0  0  0  0  0
   -3.2271    1.1488    1.1895 H   0  0  0  0  0  0  0  0  0  0  0  0
   -3.1379    1.6374   -0.5516 H   0  0  0  0  0  0  0  0  0  0  0  0
  1  2  1  0
  2  3  2  0
  3  4  1  0
  4  5  1  0
  5  6  1  0
  6  7  1  0
  5  8  1  0
  8  9  2  0
  8 10  1  0
  7  2  1  0
  1 11  1  0
  1 12  1  0
  1 13  1  0
  3 14  1  0
  4 15  1  0
  4 16  1  0
  5 17  1  0
  6 18  1  0
  6 19  1  0
  7 20  1  0
  7 21  1  0
  9 22  1  0
  9 23  1  0
 10 24  1  0
 10 25  1  0
 10 26  1  0
M  END
>  <id>  (1) 
FRU_001

>  <group>  (1) 
Fruity

>  <compound_name>  (1) 
Limonene

$$$$
FRU_002_Citral
     RDKit          3D

 27 26  0  0  0  0  0  0  0  0999 V2000
    1.9747    1.9601    0.3706 C   0  0  0  0  0  0  0  0  0  0  0  0
    2.5616    0.5684    0.3299 C   0  0  0  0  0  0  0  0  0  0  0  0
    3.9797    0.3466    0.7888 C   0  0  0  0  0  0  0  0  0  0  0  0
    1.8574   -0.4928   -0.1225 C   0  0  0  0  0  0  0  0  0  0  0  0
    0.4206   -0.4311   -0.5774 C   0  0  0  0  0  0  0  0  0  0  0  0
   -0.5330   -0.6473    0.6031 C   0  0  0  0  0  0  0  0  0  0  0  0
   -1.9721   -0.5268    0.1602 C   0  0  0  0  0  0  0  0  0  0  0  0
   -2.7327    0.7367    0.4743 C   0  0  0  0  0  0  0  0  0  0  0  0
   -2.5419   -1.5501   -0.5046 C   0  0  0  0  0  0  0  0  0  0  0  0
   -3.9345   -1.5464   -0.9826 C   0  0  0  0  0  0  0  0  0  0  0  0
   -4.3844   -2.5468   -1.5997 O   0  0  0  0  0  0  0  0  0  0  0  0
    1.0599    1.9759    0.9974 H   0  0  0  0  0  0  0  0  0  0  0  0
    1.7254    2.2958   -0.6576 H   0  0  0  0  0  0  0  0  0  0  0  0
    2.6908    2.6907    0.8006 H   0  0  0  0  0  0  0  0  0  0  0  0
    4.5844   -0.0667   -0.0461 H   0  0  0  0  0  0  0  0  0  0  0  0
    3.9915   -0.3718    1.6358 H   0  0  0  0  0  0  0  0  0  0  0  0
    4.4554    1.2905    1.1273 H   0  0  0  0  0  0  0  0  0  0  0  0
    2.3342   -1.4699   -0.1421 H   0  0  0  0  0  0  0  0  0  0  0  0
    0.2017    0.5324   -1.0849 H   0  0  0  0  0  0  0  0  0  0  0  0
    0.2606   -1.2374   -1.3254 H   0  0  0  0  0  0  0  0  0  0  0  0
   -0.3149    0.0940    1.4005 H   0  0  0  0  0  0  0  0  0  0  0  0
   -0.3607   -1.6523    1.0488 H   0  0  0  0  0  0  0  0  0  0  0  0
   -2.0943    1.4749    1.0034 H   0  0  0  0  0  0  0  0  0  0  0  0
   -3.6027    0.5035    1.1237 H   0  0  0  0  0  0  0  0  0  0  0  0
   -3.0855    1.2093   -0.4666 H   0  0  0  0  0  0  0  0  0  0  0  0
   -1.9537   -2.4383   -0.7066 H   0  0  0  0  0  0  0  0  0  0  0  0
   -4.5877   -0.7008   -0.8163 H   0  0  0  0  0  0  0  0  0  0  0  0
  1  2  1  0
  2  3  1  0
  2  4  2  3
  4  5  1  0
  5  6  1  0
  6  7  1  0
  7  8  1  0
  7  9  2  3
  9 10  1  0
 10 11  2  0
  1 12  1  0
  1 13  1  0
  1 14  1  0
  3 15  1  0
  3 16  1  0
  3 17  1  0
  4 18  1  0
  5 19  1  0
  5 20  1  0
  6 21  1  0
  6 22  1  0
  8 23  1  0
  8 24  1  0
  8 25  1  0
  9 26  1  0
 10 27  1  0
M  END
>  <id>  (2) 
FRU_002

>  <group>  (2) 
Fruity

>  <compound_name>  (2) 
Citral

$$$$
FRU_003_Citronellal
     RDKit          3D

 29 28  0  0  0  0  0  0  0  0999 V2000
    3.8782    1.1404    0.5648 C   0  0  0  0  0  0  0  0  0  0  0  0
    2.5837    0.6463   -0.0271 C   0  0  0  0  0  0  0  0  0  0  0  0
    2.6388   -0.5263   -0.9753 C   0  0  0  0  0  0  0  0  0  0  0  0
    1.4241    1.2763    0.2691 C   0  0  0  0  0  0  0  0  0  0  0  0
    0.0713    0.8499   -0.2455 C   0  0  0  0  0  0  0  0  0  0  0  0
   -0.5560   -0.2073    0.6757 C   0  0  0  0  0  0  0  0  0  0  0  0
   -1.7887   -0.9103    0.0543 C   0  0  0  0  0  0  0  0  0  0  0  0
   -2.1848   -2.1066    0.9328 C   0  0  0  0  0  0  0  0  0  0  0  0
   -3.0034    0.0384   -0.1068 C   0  0  0  0  0  0  0  0  0  0  0  0
   -2.9051    0.9001   -1.3321 C   0  0  0  0  0  0  0  0  0  0  0  0
   -2.8886    0.3970   -2.4443 O   0  0  0  0  0  0  0  0  0  0  0  0
    3.7206    1.9651    1.2926 H   0  0  0  0  0  0  0  0  0  0  0  0
    4.5385    1.5093   -0.2477 H   0  0  0  0  0  0  0  0  0  0  0  0
    4.3870    0.3063    1.0922 H   0  0  0  0  0  0  0  0  0  0  0  0
    2.2969   -0.2157   -1.9847 H   0  0  0  0  0  0  0  0  0  0  0  0
    3.6774   -0.9082   -1.0699 H   0  0  0  0  0  0  0  0  0  0  0  0
    2.0021   -1.3556   -0.6051 H   0  0  0  0  0  0  0  0  0  0  0  0
    1.4408    2.1347    0.9357 H   0  0  0  0  0  0  0  0  0  0  0  0
   -0.5787    1.7491   -0.2569 H   0  0  0  0  0  0  0  0  0  0  0  0
    0.1434    0.4781   -1.2893 H   0  0  0  0  0  0  0  0  0  0  0  0
   -0.8365    0.2675    1.6420 H   0  0  0  0  0  0  0  0  0  0  0  0
    0.2114   -0.9790    0.9034 H   0  0  0  0  0  0  0  0  0  0  0  0
   -1.5042   -1.3246   -0.9391 H   0  0  0  0  0  0  0  0  0  0  0  0
   -3.0301   -2.6613    0.4721 H   0  0  0  0  0  0  0  0  0  0  0  0
   -1.3334   -2.8135    1.0327 H   0  0  0  0  0  0  0  0  0  0  0  0
   -2.4887   -1.7642    1.9456 H   0  0  0  0  0  0  0  0  0  0  0  0
   -3.1064    0.6844    0.7920 H   0  0  0  0  0  0  0  0  0  0  0  0
   -3.9426   -0.5501   -0.1967 H   0  0  0  0  0  0  0  0  0  0  0  0
   -2.8672    1.9800   -1.2333 H   0  0  0  0  0  0  0  0  0  0  0  0
  1  2  1  0
  2  3  1  0
  2  4  2  3
  4  5  1  0
  5  6  1  0
  6  7  1  0
  7  8  1  0
  7  9  1  0
  9 10  1  0
 10 11  2  0
  1 12  1  0
  1 13  1  0
  1 14  1  0
  3 15  1  0
  3 16  1  0
  3 17  1  0
  4 18  1  0
  5 19  1  0
  5 20  1  0
  6 21  1  0
  6 22  1  0
  7 23  1  0
  8 24  1  0
  8 25  1  0
  8 26  1  0
  9 27  1  0
  9 28  1  0
 10 29  1  0
M  END
>  <id>  (3) 
FRU_003

>  <group>  (3) 
Fruity

>  <compound_name>  (3) 
Citronellal

$$$$
FRU_004_Hexanal
     RDKit          3D

 19 18  0  0  0  0  0  0  0  0999 V2000
   -2.3752   -0.5142   -0.5054 C   0  0  0  0  0  0  0  0  0  0  0  0
   -1.7798    0.2343    0.6869 C   0  0  0  0  0  0  0  0  0  0  0  0
   -0.2701   -0.0036    0.8433 C   0  0  0  0  0  0  0  0  0  0  0  0
    0.5529    0.6862   -0.2590 C   0  0  0  0  0  0  0  0  0  0  0  0
    2.0634    0.5679   -0.0112 C   0  0  0  0  0  0  0  0  0  0  0  0
    2.5679   -0.8318   -0.2167 C   0  0  0  0  0  0  0  0  0  0  0  0
    3.7460   -1.0873   -0.0271 O   0  0  0  0  0  0  0  0  0  0  0  0
   -2.1323   -1.5964   -0.4460 H   0  0  0  0  0  0  0  0  0  0  0  0
   -3.4796   -0.3996   -0.4982 H   0  0  0  0  0  0  0  0  0  0  0  0
   -1.9920   -0.1005   -1.4609 H   0  0  0  0  0  0  0  0  0  0  0  0
   -1.9885    1.3216    0.5867 H   0  0  0  0  0  0  0  0  0  0  0  0
   -2.2883   -0.1210    1.6094 H   0  0  0  0  0  0  0  0  0  0  0  0
    0.0397    0.4040    1.8304 H   0  0  0  0  0  0  0  0  0  0  0  0
   -0.0648   -1.0959    0.8524 H   0  0  0  0  0  0  0  0  0  0  0  0
    0.3104    0.2542   -1.2536 H   0  0  0  0  0  0  0  0  0  0  0  0
    0.2895    1.7662   -0.2838 H   0  0  0  0  0  0  0  0  0  0  0  0
    2.3063    0.9030    1.0205 H   0  0  0  0  0  0  0  0  0  0  0  0
    2.5945    1.2384   -0.7206 H   0  0  0  0  0  0  0  0  0  0  0  0
    1.8997   -1.6254   -0.5368 H   0  0  0  0  0  0  0  0  0  0  0  0
  1  2  1  0
  2  3  1  0
  3  4  1  0
  4  5  1  0
  5  6  1  0
  6  7  2  0
  1  8  1  0
  1  9  1  0
  1 10  1  0
  2 11  1  0
  2 12  1  0
  3 13  1  0
  3 14  1  0
  4 15  1  0
  4 16  1  0
  5 17  1  0
  5 18  1  0
  6 19  1  0
M  END
>  <id>  (4) 
FRU_004

>  <group>  (4) 
Fruity

>  <compound_name>  (4) 
Hexanal

$$$$
FRU_005_Octanal
     RDKit          3D

 25 24  0  0  0  0  0  0  0  0999 V2000
    3.6476    0.5763    0.4027 C   0  0  0  0  0  0  0  0  0  0  0  0
    2.7579    0.0493   -0.7231 C   0  0  0  0  0  0  0  0  0  0  0  0
    1.2690    0.3584   -0.5009 C   0  0  0  0  0  0  0  0  0  0  0  0
    0.6476   -0.5055    0.6101 C   0  0  0  0  0  0  0  0  0  0  0  0
   -0.8383   -0.1873    0.8430 C   0  0  0  0  0  0  0  0  0  0  0  0
   -1.7372   -0.6740   -0.3078 C   0  0  0  0  0  0  0  0  0  0  0  0
   -3.2317   -0.6008    0.0391 C   0  0  0  0  0  0  0  0  0  0  0  0
   -3.7417    0.8109    0.0692 C   0  0  0  0  0  0  0  0  0  0  0  0
   -3.4722    1.5507    1.0018 O   0  0  0  0  0  0  0  0  0  0  0  0
    4.7136    0.4327    0.1271 H   0  0  0  0  0  0  0  0  0  0  0  0
    3.4595    0.0242    1.3463 H   0  0  0  0  0  0  0  0  0  0  0  0
    3.4689    1.6604    0.5652 H   0  0  0  0  0  0  0  0  0  0  0  0
    2.9094   -1.0461   -0.8373 H   0  0  0  0  0  0  0  0  0  0  0  0
    3.0783    0.5325   -1.6717 H   0  0  0  0  0  0  0  0  0  0  0  0
    0.7410    0.1580   -1.4567 H   0  0  0  0  0  0  0  0  0  0  0  0
    1.1397    1.4371   -0.2630 H   0  0  0  0  0  0  0  0  0  0  0  0
    1.1828   -0.3143    1.5638 H   0  0  0  0  0  0  0  0  0  0  0  0
    0.7686   -1.5838    0.3664 H   0  0  0  0  0  0  0  0  0  0  0  0
   -1.1514   -0.6918    1.7832 H   0  0  0  0  0  0  0  0  0  0  0  0
   -0.9608    0.9070    0.9895 H   0  0  0  0  0  0  0  0  0  0  0  0
   -1.4913   -1.7344   -0.5349 H   0  0  0  0  0  0  0  0  0  0  0  0
   -1.5468   -0.0773   -1.2256 H   0  0  0  0  0  0  0  0  0  0  0  0
   -3.7969   -1.1549   -0.7410 H   0  0  0  0  0  0  0  0  0  0  0  0
   -3.4348   -1.0983    1.0122 H   0  0  0  0  0  0  0  0  0  0  0  0
   -4.3808    1.1710   -0.7304 H   0  0  0  0  0  0  0  0  0  0  0  0
  1  2  1  0
  2  3  1  0
  3  4  1  0
  4  5  1  0
  5  6  1  0
  6  7  1  0
  7  8  1  0
  8  9  2  0
  1 10  1  0
  1 11  1  0
  1 12  1  0
  2 13  1  0
  2 14  1  0
  3 15  1  0
  3 16  1  0
  4 17  1  0
  4 18  1  0
  5 19  1  0
  5 20  1  0
  6 21  1  0
  6 22  1  0
  7 23  1  0
  7 24  1  0
  8 25  1  0
M  END
>  <id>  (5) 
FRU_005

>  <group>  (5) 
Fruity

>  <compound_name>  (5) 
Octanal

$$$$
FRU_006_Nonanal
     RDKit          3D

 28 27  0  0  0  0  0  0  0  0999 V2000
   -3.0801    1.4148   -0.4890 C   0  0  0  0  0  0  0  0  0  0  0  0
   -2.3453    0.1774   -1.0029 C   0  0  0  0  0  0  0  0  0  0  0  0
   -2.2110   -0.9257    0.0615 C   0  0  0  0  0  0  0  0  0  0  0  0
   -1.4149   -0.5231    1.3195 C   0  0  0  0  0  0  0  0  0  0  0  0
    0.0176   -0.0282    1.0512 C   0  0  0  0  0  0  0  0  0  0  0  0
    0.8962   -1.0904    0.3681 C   0  0  0  0  0  0  0  0  0  0  0  0
    2.3818   -0.6984    0.3395 C   0  0  0  0  0  0  0  0  0  0  0  0
    2.6641    0.4725   -0.6126 C   0  0  0  0  0  0  0  0  0  0  0  0
    4.1353    0.7493   -0.7100 C   0  0  0  0  0  0  0  0  0  0  0  0
    4.5392    1.6463   -1.4322 O   0  0  0  0  0  0  0  0  0  0  0  0
   -4.0562    1.1295   -0.0422 H   0  0  0  0  0  0  0  0  0  0  0  0
   -2.4675    1.9482    0.2671 H   0  0  0  0  0  0  0  0  0  0  0  0
   -3.2673    2.1103   -1.3341 H   0  0  0  0  0  0  0  0  0  0  0  0
   -1.3482    0.4675   -1.3952 H   0  0  0  0  0  0  0  0  0  0  0  0
   -2.9208   -0.2373   -1.8587 H   0  0  0  0  0  0  0  0  0  0  0  0
   -3.2290   -1.2409    0.3787 H   0  0  0  0  0  0  0  0  0  0  0  0
   -1.7393   -1.8169   -0.4042 H   0  0  0  0  0  0  0  0  0  0  0  0
   -1.3676   -1.4020    1.9990 H   0  0  0  0  0  0  0  0  0  0  0  0
   -1.9695    0.2670    1.8691 H   0  0  0  0  0  0  0  0  0  0  0  0
   -0.0144    0.8989    0.4432 H   0  0  0  0  0  0  0  0  0  0  0  0
    0.4702    0.2395    2.0309 H   0  0  0  0  0  0  0  0  0  0  0  0
    0.5451   -1.2679   -0.6711 H   0  0  0  0  0  0  0  0  0  0  0  0
    0.8041   -2.0480    0.9259 H   0  0  0  0  0  0  0  0  0  0  0  0
    2.9630   -1.5843    0.0003 H   0  0  0  0  0  0  0  0  0  0  0  0
    2.7248   -0.4431    1.3664 H   0  0  0  0  0  0  0  0  0  0  0  0
    2.2775    0.2328   -1.6268 H   0  0  0  0  0  0  0  0  0  0  0  0
    2.1599    1.3910   -0.2455 H   0  0  0  0  0  0  0  0  0  0  0  0
    4.8522    0.1613   -0.1445 H   0  0  0  0  0  0  0  0  0  0  0  0
  1  2  1  0
  2  3  1  0
  3  4  1  0
  4  5  1  0
  5  6  1  0
  6  7  1  0
  7  8  1  0
  8  9  1  0
  9 10  2  0
  1 11  1  0
  1 12  1  0
  1 13  1  0
  2 14  1  0
  2 15  1  0
  3 16  1  0
  3 17  1  0
  4 18  1  0
  4 19  1  0
  5 20  1  0
  5 21  1  0
  6 22  1  0
  6 23  1  0
  7 24  1  0
  7 25  1  0
  8 26  1  0
  8 27  1  0
  9 28  1  0
M  END
>  <id>  (6) 
FRU_006

>  <group>  (6) 
Fruity

>  <compound_name>  (6) 
Nonanal

$$$$
FRU_007_Decanal
     RDKit          3D

 31 30  0  0  0  0  0  0  0  0999 V2000
   -4.1022   -0.3108   -1.0228 C   0  0  0  0  0  0  0  0  0  0  0  0
   -3.1503   -0.1862    0.1633 C   0  0  0  0  0  0  0  0  0  0  0  0
   -2.1660    0.9748   -0.0374 C   0  0  0  0  0  0  0  0  0  0  0  0
   -1.2858    1.2315    1.1986 C   0  0  0  0  0  0  0  0  0  0  0  0
   -0.3835    0.0522    1.6167 C   0  0  0  0  0  0  0  0  0  0  0  0
    0.5467   -0.4887    0.5154 C   0  0  0  0  0  0  0  0  0  0  0  0
    1.5645    0.5556    0.0266 C   0  0  0  0  0  0  0  0  0  0  0  0
    2.4864    0.0191   -1.0841 C   0  0  0  0  0  0  0  0  0  0  0  0
    3.4414   -1.1068   -0.6520 C   0  0  0  0  0  0  0  0  0  0  0  0
    4.4370   -0.6554    0.3763 C   0  0  0  0  0  0  0  0  0  0  0  0
    4.1242   -0.5812    1.5538 O   0  0  0  0  0  0  0  0  0  0  0  0
   -4.7941   -1.1632   -0.8563 H   0  0  0  0  0  0  0  0  0  0  0  0
   -3.5308   -0.4942   -1.9577 H   0  0  0  0  0  0  0  0  0  0  0  0
   -4.7030    0.6167   -1.1354 H   0  0  0  0  0  0  0  0  0  0  0  0
   -2.5949   -1.1423    0.2670 H   0  0  0  0  0  0  0  0  0  0  0  0
   -3.7462   -0.0197    1.0869 H   0  0  0  0  0  0  0  0  0  0  0  0
   -1.5322    0.7899   -0.9304 H   0  0  0  0  0  0  0  0  0  0  0  0
   -2.7438    1.9038   -0.2377 H   0  0  0  0  0  0  0  0  0  0  0  0
   -1.9444    1.4869    2.0574 H   0  0  0  0  0  0  0  0  0  0  0  0
   -0.6590    2.1290    1.0124 H   0  0  0  0  0  0  0  0  0  0  0  0
    0.2375    0.3769    2.4800 H   0  0  0  0  0  0  0  0  0  0  0  0
   -1.0194   -0.7804    1.9860 H   0  0  0  0  0  0  0  0  0  0  0  0
    1.0913   -1.3524    0.9499 H   0  0  0  0  0  0  0  0  0  0  0  0
   -0.0486   -0.8752   -0.3384 H   0  0  0  0  0  0  0  0  0  0  0  0
    2.1648    0.9344    0.8800 H   0  0  0  0  0  0  0  0  0  0  0  0
    1.0177    1.4225   -0.3997 H   0  0  0  0  0  0  0  0  0  0  0  0
    3.0908    0.8647   -1.4801 H   0  0  0  0  0  0  0  0  0  0  0  0
    1.8594   -0.3503   -1.9248 H   0  0  0  0  0  0  0  0  0  0  0  0
    4.0050   -1.4379   -1.5506 H   0  0  0  0  0  0  0  0  0  0  0  0
    2.8840   -1.9924   -0.2831 H   0  0  0  0  0  0  0  0  0  0  0  0
    5.4535   -0.4207    0.0776 H   0  0  0  0  0  0  0  0  0  0  0  0
  1  2  1  0
  2  3  1  0
  3  4  1  0
  4  5  1  0
  5  6  1  0
  6  7  1  0
  7  8  1  0
  8  9  1  0
  9 10  1  0
 10 11  2  0
  1 12  1  0
  1 13  1  0
  1 14  1  0
  2 15  1  0
  2 16  1  0
  3 17  1  0
  3 18  1  0
  4 19  1  0
  4 20  1  0
  5 21  1  0
  5 22  1  0
  6 23  1  0
  6 24  1  0
  7 25  1  0
  7 26  1  0
  8 27  1  0
  8 28  1  0
  9 29  1  0
  9 30  1  0
 10 31  1  0
M  END
>  <id>  (7) 
FRU_007

>  <group>  (7) 
Fruity

>  <compound_name>  (7) 
Decanal

$$$$
FRU_008_Ethyl acetate
     RDKit          3D

 14 13  0  0  0  0  0  0  0  0999 V2000
   -1.9650    0.4670   -0.4798 C   0  0  0  0  0  0  0  0  0  0  0  0
   -1.3060   -0.5289    0.4674 C   0  0  0  0  0  0  0  0  0  0  0  0
    0.0444   -0.7751    0.0798 O   0  0  0  0  0  0  0  0  0  0  0  0
    1.0901    0.1243    0.3167 C   0  0  0  0  0  0  0  0  0  0  0  0
    0.8836    1.2114    0.9217 O   0  0  0  0  0  0  0  0  0  0  0  0
    2.4575   -0.1903   -0.1870 C   0  0  0  0  0  0  0  0  0  0  0  0
   -1.4539    1.4507   -0.4253 H   0  0  0  0  0  0  0  0  0  0  0  0
   -3.0300    0.6029   -0.1966 H   0  0  0  0  0  0  0  0  0  0  0  0
   -1.9154    0.0879   -1.5225 H   0  0  0  0  0  0  0  0  0  0  0  0
   -1.3471   -0.1533    1.5130 H   0  0  0  0  0  0  0  0  0  0  0  0
   -1.8663   -1.4865    0.4234 H   0  0  0  0  0  0  0  0  0  0  0  0
    3.2200    0.1395    0.5497 H   0  0  0  0  0  0  0  0  0  0  0  0
    2.6264    0.3346   -1.1501 H   0  0  0  0  0  0  0  0  0  0  0  0
    2.5616   -1.2842   -0.3452 H   0  0  0  0  0  0  0  0  0  0  0  0
  1  2  1  0
  2  3  1  0
  3  4  1  0
  4  5  2  0
  4  6  1  0
  1  7  1  0
  1  8  1  0
  1  9  1  0
  2 10  1  0
  2 11  1  0
  6 12  1  0
  6 13  1  0
  6 14  1  0
M  END
>  <id>  (8) 
FRU_008

>  <group>  (8) 
Fruity

>  <compound_name>  (8) 
Ethyl acetate

$$$$
FRU_009_Propyl acetate
     RDKit          3D

 17 16  0  0  0  0  0  0  0  0999 V2000
    2.9501    0.0418   -0.1883 C   0  0  0  0  0  0  0  0  0  0  0  0
    1.5582   -0.5209   -0.4605 C   0  0  0  0  0  0  0  0  0  0  0  0
    0.4767    0.3300    0.2014 C   0  0  0  0  0  0  0  0  0  0  0  0
   -0.8027   -0.2293   -0.0773 O   0  0  0  0  0  0  0  0  0  0  0  0
   -1.9904    0.3318    0.4000 C   0  0  0  0  0  0  0  0  0  0  0  0
   -1.9731    1.3883    1.0884 O   0  0  0  0  0  0  0  0  0  0  0  0
   -3.2947   -0.2995    0.0492 C   0  0  0  0  0  0  0  0  0  0  0  0
    3.1530    0.0580    0.9038 H   0  0  0  0  0  0  0  0  0  0  0  0
    3.0354    1.0729   -0.5929 H   0  0  0  0  0  0  0  0  0  0  0  0
    3.7122   -0.5975   -0.6816 H   0  0  0  0  0  0  0  0  0  0  0  0
    1.3851   -0.5496   -1.5582 H   0  0  0  0  0  0  0  0  0  0  0  0
    1.5021   -1.5596   -0.0686 H   0  0  0  0  0  0  0  0  0  0  0  0
    0.6388    0.3526    1.3016 H   0  0  0  0  0  0  0  0  0  0  0  0
    0.5212    1.3679   -0.1959 H   0  0  0  0  0  0  0  0  0  0  0  0
   -3.9984   -0.2214    0.9046 H   0  0  0  0  0  0  0  0  0  0  0  0
   -3.7297    0.2158   -0.8322 H   0  0  0  0  0  0  0  0  0  0  0  0
   -3.1437   -1.3722   -0.1937 H   0  0  0  0  0  0  0  0  0  0  0  0
  1  2  1  0
  2  3  1  0
  3  4  1  0
  4  5  1  0
  5  6  2  0
  5  7  1  0
  1  8  1  0
  1  9  1  0
  1 10  1  0
  2 11  1  0
  2 12  1  0
  3 13  1  0
  3 14  1  0
  7 15  1  0
  7 16  1  0
  7 17  1  0
M  END
>  <id>  (9) 
FRU_009

>  <group>  (9) 
Fruity

>  <compound_name>  (9) 
Propyl acetate

$$$$
FRU_010_Butyl acetate
     RDKit          3D

 20 19  0  0  0  0  0  0  0  0999 V2000
    2.9404    0.1372    1.2482 C   0  0  0  0  0  0  0  0  0  0  0  0
    1.5433   -0.3477    0.8727 C   0  0  0  0  0  0  0  0  0  0  0  0
    1.3079   -0.2390   -0.6393 C   0  0  0  0  0  0  0  0  0  0  0  0
   -0.0807   -0.7435   -1.0318 C   0  0  0  0  0  0  0  0  0  0  0  0
   -1.0843    0.0914   -0.4610 O   0  0  0  0  0  0  0  0  0  0  0  0
   -2.4502   -0.1354   -0.6496 C   0  0  0  0  0  0  0  0  0  0  0  0
   -2.8518   -1.0906   -1.3685 O   0  0  0  0  0  0  0  0  0  0  0  0
   -3.4410    0.7921   -0.0329 C   0  0  0  0  0  0  0  0  0  0  0  0
    3.0701    1.2018    0.9582 H   0  0  0  0  0  0  0  0  0  0  0  0
    3.7125   -0.4786    0.7394 H   0  0  0  0  0  0  0  0  0  0  0  0
    3.0823    0.0484    2.3459 H   0  0  0  0  0  0  0  0  0  0  0  0
    1.4318   -1.4061    1.1947 H   0  0  0  0  0  0  0  0  0  0  0  0
    0.7935    0.2666    1.4171 H   0  0  0  0  0  0  0  0  0  0  0  0
    1.4153    0.8196   -0.9628 H   0  0  0  0  0  0  0  0  0  0  0  0
    2.0701   -0.8455   -1.1758 H   0  0  0  0  0  0  0  0  0  0  0  0
   -0.1716   -0.7235   -2.1396 H   0  0  0  0  0  0  0  0  0  0  0  0
   -0.2157   -1.7911   -0.6835 H   0  0  0  0  0  0  0  0  0  0  0  0
   -4.3363    0.2265    0.3012 H   0  0  0  0  0  0  0  0  0  0  0  0
   -3.7462    1.5558   -0.7779 H   0  0  0  0  0  0  0  0  0  0  0  0
   -2.9896    1.2997    0.8453 H   0  0  0  0  0  0  0  0  0  0  0  0
  1  2  1  0
  2  3  1  0
  3  4  1  0
  4  5  1  0
  5  6  1  0
  6  7  2  0
  6  8  1  0
  1  9  1  0
  1 10  1  0
  1 11  1  0
  2 12  1  0
  2 13  1  0
  3 14  1  0
  3 15  1  0
  4 16  1  0
  4 17  1  0
  8 18  1  0
  8 19  1  0
  8 20  1  0
M  END
>  <id>  (10) 
FRU_010

>  <group>  (10) 
Fruity

>  <compound_name>  (10) 
Butyl acetate

$$$$
FRU_011_Isobutyl acetate
     RDKit          3D

 20 19  0  0  0  0  0  0  0  0999 V2000
   -2.5925    0.9167    0.3175 C   0  0  0  0  0  0  0  0  0  0  0  0
   -1.2829    0.1805    0.6230 C   0  0  0  0  0  0  0  0  0  0  0  0
   -1.5015   -1.3374    0.5736 C   0  0  0  0  0  0  0  0  0  0  0  0
   -0.1833    0.6122   -0.3588 C   0  0  0  0  0  0  0  0  0  0  0  0
    1.0609    0.0248    0.0122 O   0  0  0  0  0  0  0  0  0  0  0  0
    2.2404    0.2405   -0.7056 C   0  0  0  0  0  0  0  0  0  0  0  0
    2.2424    0.9604   -1.7410 O   0  0  0  0  0  0  0  0  0  0  0  0
    3.4990   -0.4287   -0.2690 C   0  0  0  0  0  0  0  0  0  0  0  0
   -2.4423    2.0148    0.3951 H   0  0  0  0  0  0  0  0  0  0  0  0
   -3.3763    0.6245    1.0487 H   0  0  0  0  0  0  0  0  0  0  0  0
   -2.9489    0.6747   -0.7070 H   0  0  0  0  0  0  0  0  0  0  0  0
   -0.9641    0.4557    1.6529 H   0  0  0  0  0  0  0  0  0  0  0  0
   -0.5674   -1.8719    0.8479 H   0  0  0  0  0  0  0  0  0  0  0  0
   -2.2900   -1.6342    1.2978 H   0  0  0  0  0  0  0  0  0  0  0  0
   -1.8120   -1.6563   -0.4447 H   0  0  0  0  0  0  0  0  0  0  0  0
   -0.4511    0.3002   -1.3928 H   0  0  0  0  0  0  0  0  0  0  0  0
   -0.0796    1.7195   -0.3378 H   0  0  0  0  0  0  0  0  0  0  0  0
    4.3660    0.2452   -0.4339 H   0  0  0  0  0  0  0  0  0  0  0  0
    3.6430   -1.3618   -0.8521 H   0  0  0  0  0  0  0  0  0  0  0  0
    3.4402   -0.6794    0.8109 H   0  0  0  0  0  0  0  0  0  0  0  0
  1  2  1  0
  2  3  1  0
  2  4  1  0
  4  5  1  0
  5  6  1  0
  6  7  2  0
  6  8  1  0
  1  9  1  0
  1 10  1  0
  1 11  1  0
  2 12  1  0
  3 13  1  0
  3 14  1  0
  3 15  1  0
  4 16  1  0
  4 17  1  0
  8 18  1  0
  8 19  1  0
  8 20  1  0
M  END
>  <id>  (11) 
FRU_011

>  <group>  (11) 
Fruity

>  <compound_name>  (11) 
Isobutyl acetate

$$$$
FRU_012_Isoamyl acetate
     RDKit          3D

 23 22  0  0  0  0  0  0  0  0999 V2000
   -2.5728    1.2521   -0.3327 C   0  0  0  0  0  0  0  0  0  0  0  0
   -1.8937    0.0627    0.3597 C   0  0  0  0  0  0  0  0  0  0  0  0
   -2.2480   -1.2552   -0.3424 C   0  0  0  0  0  0  0  0  0  0  0  0
   -0.3669    0.2583    0.5118 C   0  0  0  0  0  0  0  0  0  0  0  0
    0.4004    0.3669   -0.8157 C   0  0  0  0  0  0  0  0  0  0  0  0
    1.7910    0.5663   -0.5685 O   0  0  0  0  0  0  0  0  0  0  0  0
    2.6546   -0.4553   -0.1574 C   0  0  0  0  0  0  0  0  0  0  0  0
    2.2466   -1.6441   -0.0538 O   0  0  0  0  0  0  0  0  0  0  0  0
    4.0884   -0.1426    0.1047 C   0  0  0  0  0  0  0  0  0  0  0  0
   -2.2782    2.2040    0.1581 H   0  0  0  0  0  0  0  0  0  0  0  0
   -2.3021    1.2987   -1.4084 H   0  0  0  0  0  0  0  0  0  0  0  0
   -3.6767    1.1518   -0.2572 H   0  0  0  0  0  0  0  0  0  0  0  0
   -2.3107    0.0049    1.3899 H   0  0  0  0  0  0  0  0  0  0  0  0
   -3.3413   -1.4389   -0.2694 H   0  0  0  0  0  0  0  0  0  0  0  0
   -1.7219   -2.1046    0.1430 H   0  0  0  0  0  0  0  0  0  0  0  0
   -1.9729   -1.2243   -1.4174 H   0  0  0  0  0  0  0  0  0  0  0  0
   -0.1796    1.1798    1.1056 H   0  0  0  0  0  0  0  0  0  0  0  0
    0.0419   -0.5912    1.1004 H   0  0  0  0  0  0  0  0  0  0  0  0
    0.2589   -0.5418   -1.4383 H   0  0  0  0  0  0  0  0  0  0  0  0
    0.0306    1.2408   -1.3896 H   0  0  0  0  0  0  0  0  0  0  0  0
    4.1996    0.9289    0.3728 H   0  0  0  0  0  0  0  0  0  0  0  0
    4.4670   -0.7630    0.9443 H   0  0  0  0  0  0  0  0  0  0  0  0
    4.6856   -0.3543   -0.8064 H   0  0  0  0  0  0  0  0  0  0  0  0
  1  2  1  0
  2  3  1  0
  2  4  1  0
  4  5  1  0
  5  6  1  0
  6  7  1  0
  7  8  2  0
  7  9  1  0
  1 10  1  0
  1 11  1  0
  1 12  1  0
  2 13  1  0
  3 14  1  0
  3 15  1  0
  3 16  1  0
  4 17  1  0
  4 18  1  0
  5 19  1  0
  5 20  1  0
  9 21  1  0
  9 22  1  0
  9 23  1  0
M  END
>  <id>  (12) 
FRU_012

>  <group>  (12) 
Fruity

>  <compound_name>  (12) 
Isoamyl acetate

$$$$
FRU_013_Hexyl acetate
     RDKit          3D

 26 25  0  0  0  0  0  0  0  0999 V2000
   -3.1785    0.7919    0.1902 C   0  0  0  0  0  0  0  0  0  0  0  0
   -2.5642   -0.3058    1.0580 C   0  0  0  0  0  0  0  0  0  0  0  0
   -2.0639   -1.5106    0.2411 C   0  0  0  0  0  0  0  0  0  0  0  0
   -0.9494   -1.1885   -0.7708 C   0  0  0  0  0  0  0  0  0  0  0  0
    0.3353   -0.6775   -0.1029 C   0  0  0  0  0  0  0  0  0  0  0  0
    1.4686   -0.5396   -1.1238 C   0  0  0  0  0  0  0  0  0  0  0  0
    2.6620   -0.0853   -0.4883 O   0  0  0  0  0  0  0  0  0  0  0  0
    2.8650    1.2404   -0.0886 C   0  0  0  0  0  0  0  0  0  0  0  0
    2.0099    2.1311   -0.3449 O   0  0  0  0  0  0  0  0  0  0  0  0
    4.1350    1.6135    0.5972 C   0  0  0  0  0  0  0  0  0  0  0  0
   -3.6606    1.5507    0.8419 H   0  0  0  0  0  0  0  0  0  0  0  0
   -2.3953    1.3016   -0.4085 H   0  0  0  0  0  0  0  0  0  0  0  0
   -3.9487    0.3670   -0.4880 H   0  0  0  0  0  0  0  0  0  0  0  0
   -1.7440    0.1179    1.6745 H   0  0  0  0  0  0  0  0  0  0  0  0
   -3.3442   -0.6679    1.7623 H   0  0  0  0  0  0  0  0  0  0  0  0
   -2.9234   -1.9526   -0.3086 H   0  0  0  0  0  0  0  0  0  0  0  0
   -1.6968   -2.2884    0.9457 H   0  0  0  0  0  0  0  0  0  0  0  0
   -0.7183   -2.1250   -1.3244 H   0  0  0  0  0  0  0  0  0  0  0  0
   -1.3091   -0.4496   -1.5180 H   0  0  0  0  0  0  0  0  0  0  0  0
    0.6515   -1.3856    0.6940 H   0  0  0  0  0  0  0  0  0  0  0  0
    0.1461    0.3140    0.3584 H   0  0  0  0  0  0  0  0  0  0  0  0
    1.6739   -1.5322   -1.5784 H   0  0  0  0  0  0  0  0  0  0  0  0
    1.1797    0.1595   -1.9393 H   0  0  0  0  0  0  0  0  0  0  0  0
    4.5684    0.7246    1.1017 H   0  0  0  0  0  0  0  0  0  0  0  0
    4.8597    1.9979   -0.1502 H   0  0  0  0  0  0  0  0  0  0  0  0
    3.9412    2.3984    1.3584 H   0  0  0  0  0  0  0  0  0  0  0  0
  1  2  1  0
  2  3  1  0
  3  4  1  0
  4  5  1  0
  5  6  1  0
  6  7  1  0
  7  8  1  0
  8  9  2  0
  8 10  1  0
  1 11  1  0
  1 12  1  0
  1 13  1  0
  2 14  1  0
  2 15  1  0
  3 16  1  0
  3 17  1  0
  4 18  1  0
  4 19  1  0
  5 20  1  0
  5 21  1  0
  6 22  1  0
  6 23  1  0
 10 24  1  0
 10 25  1  0
 10 26  1  0
M  END
>  <id>  (13) 
FRU_013

>  <group>  (13) 
Fruity

>  <compound_name>  (13) 
Hexyl acetate

$$$$
FRU_014_Methyl butyrate
     RDKit          3D

 17 16  0  0  0  0  0  0  0  0999 V2000
   -2.8006    0.2512    0.2459 C   0  0  0  0  0  0  0  0  0  0  0  0
   -1.3337    0.2313    0.6653 C   0  0  0  0  0  0  0  0  0  0  0  0
   -0.4975   -0.6249   -0.2896 C   0  0  0  0  0  0  0  0  0  0  0  0
    0.9371   -0.6282    0.1330 C   0  0  0  0  0  0  0  0  0  0  0  0
    1.3562   -1.5193    0.9215 O   0  0  0  0  0  0  0  0  0  0  0  0
    1.7889    0.3848   -0.3167 O   0  0  0  0  0  0  0  0  0  0  0  0
    3.1573    0.4596    0.0642 C   0  0  0  0  0  0  0  0  0  0  0  0
   -3.3813    0.8782    0.9548 H   0  0  0  0  0  0  0  0  0  0  0  0
   -2.9046    0.6791   -0.7740 H   0  0  0  0  0  0  0  0  0  0  0  0
   -3.2191   -0.7778    0.2568 H   0  0  0  0  0  0  0  0  0  0  0  0
   -1.2599   -0.1771    1.6971 H   0  0  0  0  0  0  0  0  0  0  0  0
   -0.9467    1.2740    0.6706 H   0  0  0  0  0  0  0  0  0  0  0  0
   -0.5694   -0.2183   -1.3217 H   0  0  0  0  0  0  0  0  0  0  0  0
   -0.8832   -1.6680   -0.2995 H   0  0  0  0  0  0  0  0  0  0  0  0
    3.6944   -0.4549   -0.2656 H   0  0  0  0  0  0  0  0  0  0  0  0
    3.2397    0.5667    1.1666 H   0  0  0  0  0  0  0  0  0  0  0  0
    3.6223    1.3435   -0.4186 H   0  0  0  0  0  0  0  0  0  0  0  0
  1  2  1  0
  2  3  1  0
  3  4  1  0
  4  5  2  0
  4  6  1  0
  6  7  1  0
  1  8  1  0
  1  9  1  0
  1 10  1  0
  2 11  1  0
  2 12  1  0
  3 13  1  0
  3 14  1  0
  7 15  1  0
  7 16  1  0
  7 17  1  0
M  END
>  <id>  (14) 
FRU_014

>  <group>  (14) 
Fruity

>  <compound_name>  (14) 
Methyl butyrate

$$$$
FRU_015_Ethyl butyrate
     RDKit          3D

 20 19  0  0  0  0  0  0  0  0999 V2000
    3.1964   -0.2350   -0.7814 C   0  0  0  0  0  0  0  0  0  0  0  0
    1.7396    0.1657   -0.5690 C   0  0  0  0  0  0  0  0  0  0  0  0
    1.2020   -0.3860    0.7540 C   0  0  0  0  0  0  0  0  0  0  0  0
   -0.2276    0.0111    0.9402 C   0  0  0  0  0  0  0  0  0  0  0  0
   -0.5068    1.0710    1.5644 O   0  0  0  0  0  0  0  0  0  0  0  0
   -1.2383   -0.7807    0.3834 O   0  0  0  0  0  0  0  0  0  0  0  0
   -2.6210   -0.4349    0.4295 C   0  0  0  0  0  0  0  0  0  0  0  0
   -2.9337    0.6641   -0.5794 C   0  0  0  0  0  0  0  0  0  0  0  0
    3.8305    0.1670    0.0374 H   0  0  0  0  0  0  0  0  0  0  0  0
    3.5586    0.1782   -1.7464 H   0  0  0  0  0  0  0  0  0  0  0  0
    3.2920   -1.3414   -0.8106 H   0  0  0  0  0  0  0  0  0  0  0  0
    1.1315   -0.2265   -1.4137 H   0  0  0  0  0  0  0  0  0  0  0  0
    1.6677    1.2756   -0.5691 H   0  0  0  0  0  0  0  0  0  0  0  0
    1.8086    0.0026    1.6013 H   0  0  0  0  0  0  0  0  0  0  0  0
    1.2720   -1.4954    0.7565 H   0  0  0  0  0  0  0  0  0  0  0  0
   -2.9062   -0.1115    1.4543 H   0  0  0  0  0  0  0  0  0  0  0  0
   -3.2191   -1.3346    0.1733 H   0  0  0  0  0  0  0  0  0  0  0  0
   -4.0226    0.8809   -0.5699 H   0  0  0  0  0  0  0  0  0  0  0  0
   -2.3831    1.5933   -0.3236 H   0  0  0  0  0  0  0  0  0  0  0  0
   -2.6405    0.3363   -1.5992 H   0  0  0  0  0  0  0  0  0  0  0  0
  1  2  1  0
  2  3  1  0
  3  4  1  0
  4  5  2  0
  4  6  1  0
  6  7  1  0
  7  8  1  0
  1  9  1  0
  1 10  1  0
  1 11  1  0
  2 12  1  0
  2 13  1  0
  3 14  1  0
  3 15  1  0
  7 16  1  0
  7 17  1  0
  8 18  1  0
  8 19  1  0
  8 20  1  0
M  END
>  <id>  (15) 
FRU_015

>  <group>  (15) 
Fruity

>  <compound_name>  (15) 
Ethyl butyrate

$$$$
FRU_016_Propyl butyrate
     RDKit          3D

 23 22  0  0  0  0  0  0  0  0999 V2000
    2.2466   -0.7968    0.7745 C   0  0  0  0  0  0  0  0  0  0  0  0
    2.6820   -0.1175   -0.5243 C   0  0  0  0  0  0  0  0  0  0  0  0
    1.5742   -0.1182   -1.5854 C   0  0  0  0  0  0  0  0  0  0  0  0
    0.4267    0.7563   -1.1855 C   0  0  0  0  0  0  0  0  0  0  0  0
    0.4678    1.9942   -1.4245 O   0  0  0  0  0  0  0  0  0  0  0  0
   -0.6591    0.1956   -0.5081 O   0  0  0  0  0  0  0  0  0  0  0  0
   -1.7559    0.9717   -0.0361 C   0  0  0  0  0  0  0  0  0  0  0  0
   -2.7464    0.0773    0.7084 C   0  0  0  0  0  0  0  0  0  0  0  0
   -2.1263   -0.5304    1.9650 C   0  0  0  0  0  0  0  0  0  0  0  0
    1.9038   -1.8341    0.5734 H   0  0  0  0  0  0  0  0  0  0  0  0
    3.1056   -0.8373    1.4768 H   0  0  0  0  0  0  0  0  0  0  0  0
    1.4266   -0.2257    1.2587 H   0  0  0  0  0  0  0  0  0  0  0  0
    3.0017    0.9255   -0.3090 H   0  0  0  0  0  0  0  0  0  0  0  0
    3.5609   -0.6639   -0.9298 H   0  0  0  0  0  0  0  0  0  0  0  0
    1.9939    0.2523   -2.5457 H   0  0  0  0  0  0  0  0  0  0  0  0
    1.2121   -1.1550   -1.7573 H   0  0  0  0  0  0  0  0  0  0  0  0
   -1.3892    1.7736    0.6419 H   0  0  0  0  0  0  0  0  0  0  0  0
   -2.2718    1.4443   -0.8998 H   0  0  0  0  0  0  0  0  0  0  0  0
   -3.6324    0.6820    0.9994 H   0  0  0  0  0  0  0  0  0  0  0  0
   -3.0890   -0.7377    0.0347 H   0  0  0  0  0  0  0  0  0  0  0  0
   -1.7861    0.2714    2.6544 H   0  0  0  0  0  0  0  0  0  0  0  0
   -2.8833   -1.1512    2.4889 H   0  0  0  0  0  0  0  0  0  0  0  0
   -1.2626   -1.1764    1.6993 H   0  0  0  0  0  0  0  0  0  0  0  0
  1  2  1  0
  2  3  1  0
  3  4  1  0
  4  5  2  0
  4  6  1  0
  6  7  1  0
  7  8  1  0
  8  9  1  0
  1 10  1  0
  1 11  1  0
  1 12  1  0
  2 13  1  0
  2 14  1  0
  3 15  1  0
  3 16  1  0
  7 17  1  0
  7 18  1  0
  8 19  1  0
  8 20  1  0
  9 21  1  0
  9 22  1  0
  9 23  1  0
M  END
>  <id>  (16) 
FRU_016

>  <group>  (16) 
Fruity

>  <compound_name>  (16) 
Propyl butyrate

$$$$
FRU_017_Methyl valerate
     RDKit          3D

 20 19  0  0  0  0  0  0  0  0999 V2000
    3.1645   -0.0357   -1.0494 C   0  0  0  0  0  0  0  0  0  0  0  0
    2.1808   -0.3356    0.0779 C   0  0  0  0  0  0  0  0  0  0  0  0
    0.7742    0.1669   -0.2663 C   0  0  0  0  0  0  0  0  0  0  0  0
   -0.2096   -0.1363    0.8674 C   0  0  0  0  0  0  0  0  0  0  0  0
   -1.5785    0.3535    0.5161 C   0  0  0  0  0  0  0  0  0  0  0  0
   -1.9301    1.5199    0.8439 O   0  0  0  0  0  0  0  0  0  0  0  0
   -2.4387   -0.4730   -0.2123 O   0  0  0  0  0  0  0  0  0  0  0  0
   -3.7437   -0.0645   -0.6037 C   0  0  0  0  0  0  0  0  0  0  0  0
    4.1726   -0.4102   -0.7725 H   0  0  0  0  0  0  0  0  0  0  0  0
    3.2283    1.0594   -1.2248 H   0  0  0  0  0  0  0  0  0  0  0  0
    2.8434   -0.5395   -1.9860 H   0  0  0  0  0  0  0  0  0  0  0  0
    2.1552   -1.4339    0.2498 H   0  0  0  0  0  0  0  0  0  0  0  0
    2.5384    0.1582    1.0078 H   0  0  0  0  0  0  0  0  0  0  0  0
    0.4243   -0.3284   -1.1994 H   0  0  0  0  0  0  0  0  0  0  0  0
    0.8078    1.2655   -0.4401 H   0  0  0  0  0  0  0  0  0  0  0  0
    0.1302    0.3551    1.8054 H   0  0  0  0  0  0  0  0  0  0  0  0
   -0.2530   -1.2326    1.0459 H   0  0  0  0  0  0  0  0  0  0  0  0
   -4.3547    0.1680    0.2941 H   0  0  0  0  0  0  0  0  0  0  0  0
   -4.2300   -0.8877   -1.1663 H   0  0  0  0  0  0  0  0  0  0  0  0
   -3.6815    0.8309   -1.2579 H   0  0  0  0  0  0  0  0  0  0  0  0
  1  2  1  0
  2  3  1  0
  3  4  1  0
  4  5  1  0
  5  6  2  0
  5  7  1  0
  7  8  1  0
  1  9  1  0
  1 10  1  0
  1 11  1  0
  2 12  1  0
  2 13  1  0
  3 14  1  0
  3 15  1  0
  4 16  1  0
  4 17  1  0
  8 18  1  0
  8 19  1  0
  8 20  1  0
M  END
>  <id>  (17) 
FRU_017

>  <group>  (17) 
Fruity

>  <compound_name>  (17) 
Methyl valerate

$$$$
FRU_018_Ethyl valerate
     RDKit          3D

 23 22  0  0  0  0  0  0  0  0999 V2000
   -3.3580   -0.4008   -0.8130 C   0  0  0  0  0  0  0  0  0  0  0  0
   -2.8614   -0.7758    0.5831 C   0  0  0  0  0  0  0  0  0  0  0  0
   -1.3309   -0.8851    0.6596 C   0  0  0  0  0  0  0  0  0  0  0  0
   -0.6376    0.4794    0.5585 C   0  0  0  0  0  0  0  0  0  0  0  0
    0.8380    0.3285    0.7499 C   0  0  0  0  0  0  0  0  0  0  0  0
    1.3354    0.4503    1.9026 O   0  0  0  0  0  0  0  0  0  0  0  0
    1.6430    0.0017   -0.3473 O   0  0  0  0  0  0  0  0  0  0  0  0
    3.0595   -0.1426   -0.2662 C   0  0  0  0  0  0  0  0  0  0  0  0
    3.7353    1.2208   -0.1766 C   0  0  0  0  0  0  0  0  0  0  0  0
   -3.0541    0.6339   -1.0739 H   0  0  0  0  0  0  0  0  0  0  0  0
   -4.4670   -0.4506   -0.8353 H   0  0  0  0  0  0  0  0  0  0  0  0
   -2.9578   -1.1071   -1.5710 H   0  0  0  0  0  0  0  0  0  0  0  0
   -3.2298   -0.0316    1.3223 H   0  0  0  0  0  0  0  0  0  0  0  0
   -3.2974   -1.7618    0.8539 H   0  0  0  0  0  0  0  0  0  0  0  0
   -1.0685   -1.3494    1.6359 H   0  0  0  0  0  0  0  0  0  0  0  0
   -0.9607   -1.5591   -0.1444 H   0  0  0  0  0  0  0  0  0  0  0  0
   -0.8188    0.9292   -0.4401 H   0  0  0  0  0  0  0  0  0  0  0  0
   -1.0419    1.1699    1.3308 H   0  0  0  0  0  0  0  0  0  0  0  0
    3.4153   -0.6571   -1.1835 H   0  0  0  0  0  0  0  0  0  0  0  0
    3.3358   -0.7692    0.6096 H   0  0  0  0  0  0  0  0  0  0  0  0
    4.8380    1.0911   -0.1711 H   0  0  0  0  0  0  0  0  0  0  0  0
    3.4502    1.8430   -1.0512 H   0  0  0  0  0  0  0  0  0  0  0  0
    3.4334    1.7425    0.7554 H   0  0  0  0  0  0  0  0  0  0  0  0
  1  2  1  0
  2  3  1  0
  3  4  1  0
  4  5  1  0
  5  6  2  0
  5  7  1  0
  7  8  1  0
  8  9  1  0
  1 10  1  0
  1 11  1  0
  1 12  1  0
  2 13  1  0
  2 14  1  0
  3 15  1  0
  3 16  1  0
  4 17  1  0
  4 18  1  0
  8 19  1  0
  8 20  1  0
  9 21  1  0
  9 22  1  0
  9 23  1  0
M  END
>  <id>  (18) 
FRU_018

>  <group>  (18) 
Fruity

>  <compound_name>  (18) 
Ethyl valerate

$$$$
FRU_019_Ethyl isovalerate
     RDKit          3D

 23 22  0  0  0  0  0  0  0  0999 V2000
   -1.6928    0.8075    1.0392 C   0  0  0  0  0  0  0  0  0  0  0  0
   -1.7983   -0.4805    0.2085 C   0  0  0  0  0  0  0  0  0  0  0  0
   -3.2338   -0.6597   -0.3004 C   0  0  0  0  0  0  0  0  0  0  0  0
   -0.8115   -0.4733   -0.9769 C   0  0  0  0  0  0  0  0  0  0  0  0
    0.6130   -0.5064   -0.5145 C   0  0  0  0  0  0  0  0  0  0  0  0
    1.1231   -1.5971   -0.1387 O   0  0  0  0  0  0  0  0  0  0  0  0
    1.3486    0.6832   -0.4659 O   0  0  0  0  0  0  0  0  0  0  0  0
    2.7120    0.7466   -0.0527 C   0  0  0  0  0  0  0  0  0  0  0  0
    3.6323    0.2277   -1.1514 C   0  0  0  0  0  0  0  0  0  0  0  0
   -0.6801    0.9016    1.4843 H   0  0  0  0  0  0  0  0  0  0  0  0
   -2.4270    0.7874    1.8727 H   0  0  0  0  0  0  0  0  0  0  0  0
   -1.8929    1.6994    0.4073 H   0  0  0  0  0  0  0  0  0  0  0  0
   -1.5629   -1.3449    0.8691 H   0  0  0  0  0  0  0  0  0  0  0  0
   -3.3259   -1.6140   -0.8618 H   0  0  0  0  0  0  0  0  0  0  0  0
   -3.5201    0.1798   -0.9701 H   0  0  0  0  0  0  0  0  0  0  0  0
   -3.9430   -0.6954    0.5540 H   0  0  0  0  0  0  0  0  0  0  0  0
   -0.9893   -1.3641   -1.6184 H   0  0  0  0  0  0  0  0  0  0  0  0
   -0.9754    0.4289   -1.6061 H   0  0  0  0  0  0  0  0  0  0  0  0
    2.8608    0.1651    0.8831 H   0  0  0  0  0  0  0  0  0  0  0  0
    2.9687    1.8065    0.1563 H   0  0  0  0  0  0  0  0  0  0  0  0
    3.4739    0.8093   -2.0841 H   0  0  0  0  0  0  0  0  0  0  0  0
    3.4299   -0.8450   -1.3521 H   0  0  0  0  0  0  0  0  0  0  0  0
    4.6907    0.3372   -0.8343 H   0  0  0  0  0  0  0  0  0  0  0  0
  1  2  1  0
  2  3  1  0
  2  4  1  0
  4  5  1  0
  5  6  2  0
  5  7  1  0
  7  8  1  0
  8  9  1  0
  1 10  1  0
  1 11  1  0
  1 12  1  0
  2 13  1  0
  3 14  1  0
  3 15  1  0
  3 16  1  0
  4 17  1  0
  4 18  1  0
  8 19  1  0
  8 20  1  0
  9 21  1  0
  9 22  1  0
  9 23  1  0
M  END
>  <id>  (19) 
FRU_019

>  <group>  (19) 
Fruity

>  <compound_name>  (19) 
Ethyl isovalerate

$$$$
FRU_020_Ethyl 2-methylbutyrate
     RDKit          3D

 23 22  0  0  0  0  0  0  0  0999 V2000
   -2.5057   -1.7862    0.0463 C   0  0  0  0  0  0  0  0  0  0  0  0
   -2.1954   -0.9786   -1.2088 C   0  0  0  0  0  0  0  0  0  0  0  0
   -0.8423   -0.5292   -1.1938 O   0  0  0  0  0  0  0  0  0  0  0  0
   -0.3912    0.5273   -0.3946 C   0  0  0  0  0  0  0  0  0  0  0  0
   -1.2019    1.1973    0.3036 O   0  0  0  0  0  0  0  0  0  0  0  0
    1.0790    0.8461   -0.3586 C   0  0  0  0  0  0  0  0  0  0  0  0
    1.3153    2.3006   -0.7798 C   0  0  0  0  0  0  0  0  0  0  0  0
    1.6741    0.5792    1.0386 C   0  0  0  0  0  0  0  0  0  0  0  0
    1.6188   -0.9011    1.4193 C   0  0  0  0  0  0  0  0  0  0  0  0
   -2.4105   -1.1491    0.9503 H   0  0  0  0  0  0  0  0  0  0  0  0
   -3.5439   -2.1761   -0.0076 H   0  0  0  0  0  0  0  0  0  0  0  0
   -1.8028   -2.6420    0.1292 H   0  0  0  0  0  0  0  0  0  0  0  0
   -2.8902   -0.1151   -1.2948 H   0  0  0  0  0  0  0  0  0  0  0  0
   -2.3420   -1.6290   -2.0967 H   0  0  0  0  0  0  0  0  0  0  0  0
    1.6017    0.1970   -1.0962 H   0  0  0  0  0  0  0  0  0  0  0  0
    2.4048    2.5127   -0.8262 H   0  0  0  0  0  0  0  0  0  0  0  0
    0.8459    3.0026   -0.0572 H   0  0  0  0  0  0  0  0  0  0  0  0
    0.8851    2.4815   -1.7884 H   0  0  0  0  0  0  0  0  0  0  0  0
    1.1340    1.1750    1.8071 H   0  0  0  0  0  0  0  0  0  0  0  0
    2.7396    0.8974    1.0509 H   0  0  0  0  0  0  0  0  0  0  0  0
    2.1082   -1.0486    2.4050 H   0  0  0  0  0  0  0  0  0  0  0  0
    0.5663   -1.2470    1.4958 H   0  0  0  0  0  0  0  0  0  0  0  0
    2.1529   -1.5148    0.6630 H   0  0  0  0  0  0  0  0  0  0  0  0
  1  2  1  0
  2  3  1  0
  3  4  1  0
  4  5  2  0
  4  6  1  0
  6  7  1  0
  6  8  1  0
  8  9  1  0
  1 10  1  0
  1 11  1  0
  1 12  1  0
  2 13  1  0
  2 14  1  0
  6 15  1  0
  7 16  1  0
  7 17  1  0
  7 18  1  0
  8 19  1  0
  8 20  1  0
  9 21  1  0
  9 22  1  0
  9 23  1  0
M  END
>  <id>  (20) 
FRU_020

>  <group>  (20) 
Fruity

>  <compound_name>  (20) 
Ethyl 2-methylbutyrate

$$$$
FRU_021_Methyl hexanoate
     RDKit          3D

 23 22  0  0  0  0  0  0  0  0999 V2000
   -2.6781   -0.2062   -1.0545 C   0  0  0  0  0  0  0  0  0  0  0  0
   -1.4727    0.6590   -0.6893 C   0  0  0  0  0  0  0  0  0  0  0  0
   -1.1134    0.5896    0.8054 C   0  0  0  0  0  0  0  0  0  0  0  0
   -0.7183   -0.8121    1.3142 C   0  0  0  0  0  0  0  0  0  0  0  0
    0.5050   -1.4237    0.6134 C   0  0  0  0  0  0  0  0  0  0  0  0
    1.7294   -0.5798    0.7879 C   0  0  0  0  0  0  0  0  0  0  0  0
    2.3793   -0.6344    1.8677 O   0  0  0  0  0  0  0  0  0  0  0  0
    2.1176    0.2896   -0.2355 O   0  0  0  0  0  0  0  0  0  0  0  0
    3.2436    1.1508   -0.1227 C   0  0  0  0  0  0  0  0  0  0  0  0
   -2.4238   -1.2837   -0.9779 H   0  0  0  0  0  0  0  0  0  0  0  0
   -2.9780    0.0028   -2.1030 H   0  0  0  0  0  0  0  0  0  0  0  0
   -3.5371    0.0220   -0.3883 H   0  0  0  0  0  0  0  0  0  0  0  0
   -1.7164    1.7151   -0.9360 H   0  0  0  0  0  0  0  0  0  0  0  0
   -0.6021    0.3742   -1.3160 H   0  0  0  0  0  0  0  0  0  0  0  0
   -0.2825    1.3001    1.0046 H   0  0  0  0  0  0  0  0  0  0  0  0
   -1.9836    0.9455    1.3990 H   0  0  0  0  0  0  0  0  0  0  0  0
   -1.5796   -1.5050    1.2087 H   0  0  0  0  0  0  0  0  0  0  0  0
   -0.5051   -0.7403    2.4034 H   0  0  0  0  0  0  0  0  0  0  0  0
    0.6986   -2.4281    1.0482 H   0  0  0  0  0  0  0  0  0  0  0  0
    0.3002   -1.5765   -0.4666 H   0  0  0  0  0  0  0  0  0  0  0  0
    3.1033    1.8496    0.7291 H   0  0  0  0  0  0  0  0  0  0  0  0
    3.3472    1.7394   -1.0571 H   0  0  0  0  0  0  0  0  0  0  0  0
    4.1665    0.5522    0.0304 H   0  0  0  0  0  0  0  0  0  0  0  0
  1  2  1  0
  2  3  1  0
  3  4  1  0
  4  5  1  0
  5  6  1  0
  6  7  2  0
  6  8  1  0
  8  9  1  0
  1 10  1  0
  1 11  1  0
  1 12  1  0
  2 13  1  0
  2 14  1  0
  3 15  1  0
  3 16  1  0
  4 17  1  0
  4 18  1  0
  5 19  1  0
  5 20  1  0
  9 21  1  0
  9 22  1  0
  9 23  1  0
M  END
>  <id>  (21) 
FRU_021

>  <group>  (21) 
Fruity

>  <compound_name>  (21) 
Methyl hexanoate

$$$$
FRU_022_Ethyl hexanoate
     RDKit          3D

 26 25  0  0  0  0  0  0  0  0999 V2000
    3.6154    0.8790    0.2256 C   0  0  0  0  0  0  0  0  0  0  0  0
    2.1778    1.3160   -0.0543 C   0  0  0  0  0  0  0  0  0  0  0  0
    1.1384    0.3074    0.4584 C   0  0  0  0  0  0  0  0  0  0  0  0
    1.1056   -0.9831   -0.3790 C   0  0  0  0  0  0  0  0  0  0  0  0
    0.0268   -1.9612    0.1052 C   0  0  0  0  0  0  0  0  0  0  0  0
   -1.3515   -1.4400   -0.1600 C   0  0  0  0  0  0  0  0  0  0  0  0
   -1.8412   -1.5273   -1.3192 O   0  0  0  0  0  0  0  0  0  0  0  0
   -2.0676   -0.8310    0.8766 O   0  0  0  0  0  0  0  0  0  0  0  0
   -3.3291   -0.1936    0.6889 C   0  0  0  0  0  0  0  0  0  0  0  0
   -3.1490    1.1617    0.0148 C   0  0  0  0  0  0  0  0  0  0  0  0
    3.7514    0.6563    1.3053 H   0  0  0  0  0  0  0  0  0  0  0  0
    4.3106    1.6980   -0.0555 H   0  0  0  0  0  0  0  0  0  0  0  0
    3.8789   -0.0167   -0.3737 H   0  0  0  0  0  0  0  0  0  0  0  0
    2.0050    2.2878    0.4572 H   0  0  0  0  0  0  0  0  0  0  0  0
    2.0440    1.4829   -1.1452 H   0  0  0  0  0  0  0  0  0  0  0  0
    0.1423    0.7976    0.4107 H   0  0  0  0  0  0  0  0  0  0  0  0
    1.3430    0.0637    1.5240 H   0  0  0  0  0  0  0  0  0  0  0  0
    2.0867   -1.4973   -0.3016 H   0  0  0  0  0  0  0  0  0  0  0  0
    0.9329   -0.7376   -1.4502 H   0  0  0  0  0  0  0  0  0  0  0  0
    0.1520   -2.9296   -0.4259 H   0  0  0  0  0  0  0  0  0  0  0  0
    0.1519   -2.1577    1.1921 H   0  0  0  0  0  0  0  0  0  0  0  0
   -3.7981   -0.0378    1.6832 H   0  0  0  0  0  0  0  0  0  0  0  0
   -4.0043   -0.8389    0.0859 H   0  0  0  0  0  0  0  0  0  0  0  0
   -4.1336    1.6665   -0.0781 H   0  0  0  0  0  0  0  0  0  0  0  0
   -2.4728    1.7997    0.6223 H   0  0  0  0  0  0  0  0  0  0  0  0
   -2.7156    1.0353   -0.9992 H   0  0  0  0  0  0  0  0  0  0  0  0
  1  2  1  0
  2  3  1  0
  3  4  1  0
  4  5  1  0
  5  6  1  0
  6  7  2  0
  6  8  1  0
  8  9  1  0
  9 10  1  0
  1 11  1  0
  1 12  1  0
  1 13  1  0
  2 14  1  0
  2 15  1  0
  3 16  1  0
  3 17  1  0
  4 18  1  0
  4 19  1  0
  5 20  1  0
  5 21  1  0
  9 22  1  0
  9 23  1  0
 10 24  1  0
 10 25  1  0
 10 26  1  0
M  END
>  <id>  (22) 
FRU_022

>  <group>  (22) 
Fruity

>  <compound_name>  (22) 
Ethyl hexanoate

$$$$
FRU_023_Allyl hexanoate
     RDKit          3D

 27 26  0  0  0  0  0  0  0  0999 V2000
    3.1671    1.5344    0.2016 C   0  0  0  0  0  0  0  0  0  0  0  0
    3.2349    0.0108    0.2985 C   0  0  0  0  0  0  0  0  0  0  0  0
    2.6787   -0.6975   -0.9496 C   0  0  0  0  0  0  0  0  0  0  0  0
    1.1902   -0.4291   -1.2355 C   0  0  0  0  0  0  0  0  0  0  0  0
    0.2671   -0.9426   -0.1236 C   0  0  0  0  0  0  0  0  0  0  0  0
   -1.1651   -0.8017   -0.5303 C   0  0  0  0  0  0  0  0  0  0  0  0
   -1.7593   -1.7700   -1.0786 O   0  0  0  0  0  0  0  0  0  0  0  0
   -1.8166    0.4219   -0.3384 O   0  0  0  0  0  0  0  0  0  0  0  0
   -3.1796    0.6459   -0.6939 C   0  0  0  0  0  0  0  0  0  0  0  0
   -4.0993   -0.1096    0.2224 C   0  0  0  0  0  0  0  0  0  0  0  0
   -4.1395    0.1458    1.5326 C   0  0  0  0  0  0  0  0  0  0  0  0
    3.7239    1.9832    1.0511 H   0  0  0  0  0  0  0  0  0  0  0  0
    3.6260    1.8853   -0.7471 H   0  0  0  0  0  0  0  0  0  0  0  0
    2.1153    1.8838    0.2581 H   0  0  0  0  0  0  0  0  0  0  0  0
    4.3010   -0.2819    0.4138 H   0  0  0  0  0  0  0  0  0  0  0  0
    2.7052   -0.3311    1.2122 H   0  0  0  0  0  0  0  0  0  0  0  0
    3.2716   -0.3812   -1.8355 H   0  0  0  0  0  0  0  0  0  0  0  0
    2.8315   -1.7927   -0.8332 H   0  0  0  0  0  0  0  0  0  0  0  0
    1.0191    0.6558   -1.4021 H   0  0  0  0  0  0  0  0  0  0  0  0
    0.9310   -0.9490   -2.1843 H   0  0  0  0  0  0  0  0  0  0  0  0
    0.4247   -0.3568    0.8061 H   0  0  0  0  0  0  0  0  0  0  0  0
    0.4882   -2.0107    0.0928 H   0  0  0  0  0  0  0  0  0  0  0  0
   -3.3987    1.7320   -0.6185 H   0  0  0  0  0  0  0  0  0  0  0  0
   -3.3524    0.3345   -1.7467 H   0  0  0  0  0  0  0  0  0  0  0  0
   -4.7481   -0.8758   -0.1914 H   0  0  0  0  0  0  0  0  0  0  0  0
   -3.5033    0.9083    1.9721 H   0  0  0  0  0  0  0  0  0  0  0  0
   -4.8137   -0.4120    2.1743 H   0  0  0  0  0  0  0  0  0  0  0  0
  1  2  1  0
  2  3  1  0
  3  4  1  0
  4  5  1  0
  5  6  1  0
  6  7  2  0
  6  8  1  0
  8  9  1  0
  9 10  1  0
 10 11  2  0
  1 12  1  0
  1 13  1  0
  1 14  1  0
  2 15  1  0
  2 16  1  0
  3 17  1  0
  3 18  1  0
  4 19  1  0
  4 20  1  0
  5 21  1  0
  5 22  1  0
  9 23  1  0
  9 24  1  0
 10 25  1  0
 11 26  1  0
 11 27  1  0
M  END
>  <id>  (23) 
FRU_023

>  <group>  (23) 
Fruity

>  <compound_name>  (23) 
Allyl hexanoate

$$$$
FRU_024_Hexyl butyrate
     RDKit          3D

 32 31  0  0  0  0  0  0  0  0999 V2000
    5.5558    0.5301    0.7654 C   0  0  0  0  0  0  0  0  0  0  0  0
    4.3003   -0.0172    0.0930 C   0  0  0  0  0  0  0  0  0  0  0  0
    3.6821    1.0187   -0.8496 C   0  0  0  0  0  0  0  0  0  0  0  0
    2.4500    0.4677   -1.4936 C   0  0  0  0  0  0  0  0  0  0  0  0
    2.5323   -0.1142   -2.6098 O   0  0  0  0  0  0  0  0  0  0  0  0
    1.2250    0.5644   -0.8277 O   0  0  0  0  0  0  0  0  0  0  0  0
    0.0158    0.0383   -1.3647 C   0  0  0  0  0  0  0  0  0  0  0  0
   -1.1307    0.3057   -0.3916 C   0  0  0  0  0  0  0  0  0  0  0  0
   -2.4540   -0.2599   -0.9282 C   0  0  0  0  0  0  0  0  0  0  0  0
   -3.6550    0.1018   -0.0404 C   0  0  0  0  0  0  0  0  0  0  0  0
   -3.6501   -0.6533    1.2969 C   0  0  0  0  0  0  0  0  0  0  0  0
   -4.9214   -0.3699    2.0922 C   0  0  0  0  0  0  0  0  0  0  0  0
    5.3101    1.4321    1.3656 H   0  0  0  0  0  0  0  0  0  0  0  0
    5.9815   -0.2411    1.4415 H   0  0  0  0  0  0  0  0  0  0  0  0
    6.3188    0.7935    0.0022 H   0  0  0  0  0  0  0  0  0  0  0  0
    4.5683   -0.9322   -0.4796 H   0  0  0  0  0  0  0  0  0  0  0  0
    3.5640   -0.2963    0.8785 H   0  0  0  0  0  0  0  0  0  0  0  0
    3.4125    1.9341   -0.2794 H   0  0  0  0  0  0  0  0  0  0  0  0
    4.4164    1.3023   -1.6352 H   0  0  0  0  0  0  0  0  0  0  0  0
    0.1264   -1.0574   -1.5208 H   0  0  0  0  0  0  0  0  0  0  0  0
   -0.1981    0.5268   -2.3408 H   0  0  0  0  0  0  0  0  0  0  0  0
   -0.8833   -0.1672    0.5823 H   0  0  0  0  0  0  0  0  0  0  0  0
   -1.2260    1.4031   -0.2394 H   0  0  0  0  0  0  0  0  0  0  0  0
   -2.3802   -1.3650   -1.0306 H   0  0  0  0  0  0  0  0  0  0  0  0
   -2.6387    0.1601   -1.9414 H   0  0  0  0  0  0  0  0  0  0  0  0
   -3.6711    1.1986    0.1437 H   0  0  0  0  0  0  0  0  0  0  0  0
   -4.5823   -0.1597   -0.5961 H   0  0  0  0  0  0  0  0  0  0  0  0
   -3.5795   -1.7474    1.1123 H   0  0  0  0  0  0  0  0  0  0  0  0
   -2.7780   -0.3406    1.9088 H   0  0  0  0  0  0  0  0  0  0  0  0
   -5.8154   -0.7055    1.5246 H   0  0  0  0  0  0  0  0  0  0  0  0
   -5.0085    0.7169    2.3054 H   0  0  0  0  0  0  0  0  0  0  0  0
   -4.8871   -0.9195    3.0565 H   0  0  0  0  0  0  0  0  0  0  0  0
  1  2  1  0
  2  3  1  0
  3  4  1  0
  4  5  2  0
  4  6  1  0
  6  7  1  0
  7  8  1  0
  8  9  1  0
  9 10  1  0
 10 11  1  0
 11 12  1  0
  1 13  1  0
  1 14  1  0
  1 15  1  0
  2 16  1  0
  2 17  1  0
  3 18  1  0
  3 19  1  0
  7 20  1  0
  7 21  1  0
  8 22  1  0
  8 23  1  0
  9 24  1  0
  9 25  1  0
 10 26  1  0
 10 27  1  0
 11 28  1  0
 11 29  1  0
 12 30  1  0
 12 31  1  0
 12 32  1  0
M  END
>  <id>  (24) 
FRU_024

>  <group>  (24) 
Fruity

>  <compound_name>  (24) 
Hexyl butyrate

$$$$
FRU_025_gamma-Nonalactone
     RDKit          3D

 27 27  0  0  0  0  0  0  0  0999 V2000
   -3.4496    0.7076   -0.1340 C   0  0  0  0  0  0  0  0  0  0  0  0
   -3.0847   -0.6169    0.5361 C   0  0  0  0  0  0  0  0  0  0  0  0
   -1.5785   -0.7480    0.8090 C   0  0  0  0  0  0  0  0  0  0  0  0
   -0.7565   -0.8972   -0.4832 C   0  0  0  0  0  0  0  0  0  0  0  0
    0.7042   -1.3019   -0.2148 C   0  0  0  0  0  0  0  0  0  0  0  0
    1.5295   -0.2131    0.4933 C   0  0  0  0  0  0  0  0  0  0  0  0
    1.7099    1.0753   -0.3475 C   0  0  0  0  0  0  0  0  0  0  0  0
    3.1869    1.4651   -0.2181 C   0  0  0  0  0  0  0  0  0  0  0  0
    3.7829    0.2522    0.3733 C   0  0  0  0  0  0  0  0  0  0  0  0
    5.0185    0.0820    0.5410 O   0  0  0  0  0  0  0  0  0  0  0  0
    2.8432   -0.6854    0.7364 O   0  0  0  0  0  0  0  0  0  0  0  0
   -3.0356    0.7542   -1.1625 H   0  0  0  0  0  0  0  0  0  0  0  0
   -4.5544    0.7945   -0.2018 H   0  0  0  0  0  0  0  0  0  0  0  0
   -3.0636    1.5632    0.4599 H   0  0  0  0  0  0  0  0  0  0  0  0
   -3.4351   -1.4625   -0.0947 H   0  0  0  0  0  0  0  0  0  0  0  0
   -3.6239   -0.6767    1.5064 H   0  0  0  0  0  0  0  0  0  0  0  0
   -1.2341    0.1385    1.3830 H   0  0  0  0  0  0  0  0  0  0  0  0
   -1.4227   -1.6468    1.4449 H   0  0  0  0  0  0  0  0  0  0  0  0
   -0.7839    0.0488   -1.0632 H   0  0  0  0  0  0  0  0  0  0  0  0
   -1.2161   -1.6890   -1.1142 H   0  0  0  0  0  0  0  0  0  0  0  0
    1.1892   -1.5495   -1.1845 H   0  0  0  0  0  0  0  0  0  0  0  0
    0.7204   -2.2275    0.4011 H   0  0  0  0  0  0  0  0  0  0  0  0
    1.0740    0.0430    1.4737 H   0  0  0  0  0  0  0  0  0  0  0  0
    1.0490    1.8876    0.0256 H   0  0  0  0  0  0  0  0  0  0  0  0
    1.4803    0.8906   -1.4202 H   0  0  0  0  0  0  0  0  0  0  0  0
    3.3118    2.3240    0.4754 H   0  0  0  0  0  0  0  0  0  0  0  0
    3.6386    1.6879   -1.2086 H   0  0  0  0  0  0  0  0  0  0  0  0
  1  2  1  0
  2  3  1  0
  3  4  1  0
  4  5  1  0
  5  6  1  0
  6  7  1  0
  7  8  1  0
  8  9  1  0
  9 10  2  0
  9 11  1  0
 11  6  1  0
  1 12  1  0
  1 13  1  0
  1 14  1  0
  2 15  1  0
  2 16  1  0
  3 17  1  0
  3 18  1  0
  4 19  1  0
  4 20  1  0
  5 21  1  0
  5 22  1  0
  6 23  1  0
  7 24  1  0
  7 25  1  0
  8 26  1  0
  8 27  1  0
M  END
>  <id>  (25) 
FRU_025

>  <group>  (25) 
Fruity

>  <compound_name>  (25) 
gamma-Nonalactone

$$$$
FRU_026_gamma-Decalactone
     RDKit          3D

 30 30  0  0  0  0  0  0  0  0999 V2000
    3.5667    0.4329   -0.8822 C   0  0  0  0  0  0  0  0  0  0  0  0
    2.9648   -0.9601   -1.0623 C   0  0  0  0  0  0  0  0  0  0  0  0
    2.5881   -1.6310    0.2707 C   0  0  0  0  0  0  0  0  0  0  0  0
    1.5251   -0.8820    1.0948 C   0  0  0  0  0  0  0  0  0  0  0  0
    0.1734   -0.7770    0.3737 C   0  0  0  0  0  0  0  0  0  0  0  0
   -0.8981   -0.1842    1.2999 C   0  0  0  0  0  0  0  0  0  0  0  0
   -2.2618   -0.0742    0.6009 C   0  0  0  0  0  0  0  0  0  0  0  0
   -2.2974    0.9950   -0.5202 C   0  0  0  0  0  0  0  0  0  0  0  0
   -3.5854    1.7986   -0.3054 C   0  0  0  0  0  0  0  0  0  0  0  0
   -4.0193    1.3530    1.0321 C   0  0  0  0  0  0  0  0  0  0  0  0
   -4.9918    1.8473    1.6597 O   0  0  0  0  0  0  0  0  0  0  0  0
   -3.2522    0.3258    1.5319 O   0  0  0  0  0  0  0  0  0  0  0  0
    3.9617    0.7928   -1.8555 H   0  0  0  0  0  0  0  0  0  0  0  0
    4.4015    0.4048   -0.1499 H   0  0  0  0  0  0  0  0  0  0  0  0
    2.7940    1.1516   -0.5387 H   0  0  0  0  0  0  0  0  0  0  0  0
    2.0843   -0.9044   -1.7360 H   0  0  0  0  0  0  0  0  0  0  0  0
    3.7191   -1.6007   -1.5686 H   0  0  0  0  0  0  0  0  0  0  0  0
    2.2212   -2.6589    0.0587 H   0  0  0  0  0  0  0  0  0  0  0  0
    3.5053   -1.7369    0.8903 H   0  0  0  0  0  0  0  0  0  0  0  0
    1.8912    0.1310    1.3656 H   0  0  0  0  0  0  0  0  0  0  0  0
    1.3825   -1.4413    2.0454 H   0  0  0  0  0  0  0  0  0  0  0  0
   -0.1484   -1.7879    0.0401 H   0  0  0  0  0  0  0  0  0  0  0  0
    0.2820   -0.1259   -0.5187 H   0  0  0  0  0  0  0  0  0  0  0  0
   -1.0115   -0.8436    2.1883 H   0  0  0  0  0  0  0  0  0  0  0  0
   -0.5785    0.8189    1.6592 H   0  0  0  0  0  0  0  0  0  0  0  0
   -2.5550   -1.0630    0.1831 H   0  0  0  0  0  0  0  0  0  0  0  0
   -1.4259    1.6830   -0.4509 H   0  0  0  0  0  0  0  0  0  0  0  0
   -2.2927    0.5152   -1.5231 H   0  0  0  0  0  0  0  0  0  0  0  0
   -3.3897    2.8925   -0.3147 H   0  0  0  0  0  0  0  0  0  0  0  0
   -4.3535    1.5288   -1.0615 H   0  0  0  0  0  0  0  0  0  0  0  0
  1  2  1  0
  2  3  1  0
  3  4  1  0
  4  5  1  0
  5  6  1  0
  6  7  1  0
  7  8  1  0
  8  9  1  0
  9 10  1  0
 10 11  2  0
 10 12  1  0
 12  7  1  0
  1 13  1  0
  1 14  1  0
  1 15  1  0
  2 16  1  0
  2 17  1  0
  3 18  1  0
  3 19  1  0
  4 20  1  0
  4 21  1  0
  5 22  1  0
  5 23  1  0
  6 24  1  0
  6 25  1  0
  7 26  1  0
  8 27  1  0
  8 28  1  0
  9 29  1  0
  9 30  1  0
M  END
>  <id>  (26) 
FRU_026

>  <group>  (26) 
Fruity

>  <compound_name>  (26) 
gamma-Decalactone

$$$$
FRU_027_Raspberry ketone
     RDKit          3D

 24 24  0  0  0  0  0  0  0  0999 V2000
    4.1598    0.1711   -0.7177 C   0  0  0  0  0  0  0  0  0  0  0  0
    3.0808   -0.0762    0.2920 C   0  0  0  0  0  0  0  0  0  0  0  0
    3.3949   -0.3440    1.4428 O   0  0  0  0  0  0  0  0  0  0  0  0
    1.6298    0.0072   -0.1185 C   0  0  0  0  0  0  0  0  0  0  0  0
    0.6594   -0.2734    1.0374 C   0  0  0  0  0  0  0  0  0  0  0  0
   -0.7669   -0.1754    0.5658 C   0  0  0  0  0  0  0  0  0  0  0  0
   -1.4186   -1.3031    0.0401 C   0  0  0  0  0  0  0  0  0  0  0  0
   -2.7326   -1.2036   -0.4276 C   0  0  0  0  0  0  0  0  0  0  0  0
   -3.4041    0.0225   -0.3848 C   0  0  0  0  0  0  0  0  0  0  0  0
   -4.7130    0.1069   -0.8541 O   0  0  0  0  0  0  0  0  0  0  0  0
   -2.7538    1.1539    0.1266 C   0  0  0  0  0  0  0  0  0  0  0  0
   -1.4399    1.0570    0.5950 C   0  0  0  0  0  0  0  0  0  0  0  0
    4.7837    1.0300   -0.3931 H   0  0  0  0  0  0  0  0  0  0  0  0
    3.7253    0.4013   -1.7136 H   0  0  0  0  0  0  0  0  0  0  0  0
    4.7997   -0.7316   -0.8074 H   0  0  0  0  0  0  0  0  0  0  0  0
    1.4515   -0.7283   -0.9330 H   0  0  0  0  0  0  0  0  0  0  0  0
    1.4356    1.0254   -0.5206 H   0  0  0  0  0  0  0  0  0  0  0  0
    0.8491   -1.2898    1.4481 H   0  0  0  0  0  0  0  0  0  0  0  0
    0.8333    0.4565    1.8587 H   0  0  0  0  0  0  0  0  0  0  0  0
   -0.9089   -2.2575   -0.0085 H   0  0  0  0  0  0  0  0  0  0  0  0
   -3.2283   -2.0794   -0.8270 H   0  0  0  0  0  0  0  0  0  0  0  0
   -5.2260    0.9806   -0.8374 H   0  0  0  0  0  0  0  0  0  0  0  0
   -3.2639    2.1083    0.1583 H   0  0  0  0  0  0  0  0  0  0  0  0
   -0.9467    1.9416    0.9786 H   0  0  0  0  0  0  0  0  0  0  0  0
  1  2  1  0
  2  3  2  0
  2  4  1  0
  4  5  1  0
  5  6  1  0
  6  7  1  0
  7  8  2  0
  8  9  1  0
  9 10  1  0
  9 11  2  0
 11 12  1  0
 12  6  2  0
  1 13  1  0
  1 14  1  0
  1 15  1  0
  4 16  1  0
  4 17  1  0
  5 18  1  0
  5 19  1  0
  7 20  1  0
  8 21  1  0
 10 22  1  0
 11 23  1  0
 12 24  1  0
M  END
>  <id>  (27) 
FRU_027

>  <group>  (27) 
Fruity

>  <compound_name>  (27) 
Raspberry ketone

$$$$
FRU_028_Benzaldehyde
     RDKit          3D

 14 14  0  0  0  0  0  0  0  0999 V2000
    2.9868   -1.1331   -0.1900 O   0  0  0  0  0  0  0  0  0  0  0  0
    2.3533   -0.0444   -0.1702 C   0  0  0  0  0  0  0  0  0  0  0  0
    0.8830   -0.0208   -0.0638 C   0  0  0  0  0  0  0  0  0  0  0  0
    0.1405   -1.2128    0.0191 C   0  0  0  0  0  0  0  0  0  0  0  0
   -1.2538   -1.1684    0.1195 C   0  0  0  0  0  0  0  0  0  0  0  0
   -1.9166    0.0616    0.1380 C   0  0  0  0  0  0  0  0  0  0  0  0
   -1.1862    1.2500    0.0561 C   0  0  0  0  0  0  0  0  0  0  0  0
    0.2082    1.2108   -0.0445 C   0  0  0  0  0  0  0  0  0  0  0  0
    2.9063    0.8843   -0.2330 H   0  0  0  0  0  0  0  0  0  0  0  0
    0.6356   -2.1758    0.0064 H   0  0  0  0  0  0  0  0  0  0  0  0
   -1.8207   -2.0883    0.1831 H   0  0  0  0  0  0  0  0  0  0  0  0
   -2.9956    0.0938    0.2158 H   0  0  0  0  0  0  0  0  0  0  0  0
   -1.7006    2.2022    0.0705 H   0  0  0  0  0  0  0  0  0  0  0  0
    0.7599    2.1409   -0.1071 H   0  0  0  0  0  0  0  0  0  0  0  0
  1  2  2  0
  2  3  1  0
  3  4  2  0
  4  5  1  0
  5  6  2  0
  6  7  1  0
  7  8  2  0
  8  3  1  0
  2  9  1  0
  4 10  1  0
  5 11  1  0
  6 12  1  0
  7 13  1  0
  8 14  1  0
M  END
>  <id>  (28) 
FRU_028

>  <group>  (28) 
Fruity

>  <compound_name>  (28) 
Benzaldehyde

$$$$
FRU_029_Methyl anthranilate
     RDKit          3D

 20 20  0  0  0  0  0  0  0  0999 V2000
    3.3884    0.7776   -0.5403 C   0  0  0  0  0  0  0  0  0  0  0  0
    2.0178    0.6727   -0.1745 O   0  0  0  0  0  0  0  0  0  0  0  0
    1.2536   -0.4707   -0.4296 C   0  0  0  0  0  0  0  0  0  0  0  0
    1.7861   -1.4793   -0.9703 O   0  0  0  0  0  0  0  0  0  0  0  0
   -0.1654   -0.5249   -0.0133 C   0  0  0  0  0  0  0  0  0  0  0  0
   -0.6838   -1.7475    0.4533 C   0  0  0  0  0  0  0  0  0  0  0  0
   -1.9927   -1.8307    0.9315 C   0  0  0  0  0  0  0  0  0  0  0  0
   -2.8032   -0.6969    0.9505 C   0  0  0  0  0  0  0  0  0  0  0  0
   -2.3139    0.5198    0.4736 C   0  0  0  0  0  0  0  0  0  0  0  0
   -1.0053    0.6188   -0.0268 C   0  0  0  0  0  0  0  0  0  0  0  0
   -0.5796    1.8650   -0.5944 N   0  0  0  0  0  0  0  0  0  0  0  0
    3.7709    1.7739   -0.2377 H   0  0  0  0  0  0  0  0  0  0  0  0
    3.4974    0.6690   -1.6402 H   0  0  0  0  0  0  0  0  0  0  0  0
    3.9809   -0.0075   -0.0245 H   0  0  0  0  0  0  0  0  0  0  0  0
   -0.0651   -2.6366    0.4730 H   0  0  0  0  0  0  0  0  0  0  0  0
   -2.3757   -2.7746    1.2975 H   0  0  0  0  0  0  0  0  0  0  0  0
   -3.8163   -0.7629    1.3258 H   0  0  0  0  0  0  0  0  0  0  0  0
   -2.9649    1.3852    0.4722 H   0  0  0  0  0  0  0  0  0  0  0  0
    0.2372    1.9273   -1.2395 H   0  0  0  0  0  0  0  0  0  0  0  0
   -1.1665    2.7222   -0.4863 H   0  0  0  0  0  0  0  0  0  0  0  0
  1  2  1  0
  2  3  1  0
  3  4  2  0
  3  5  1  0
  5  6  2  0
  6  7  1  0
  7  8  2  0
  8  9  1  0
  9 10  2  0
 10 11  1  0
 10  5  1  0
  1 12  1  0
  1 13  1  0
  1 14  1  0
  6 15  1  0
  7 16  1  0
  8 17  1  0
  9 18  1  0
 11 19  1  0
 11 20  1  0
M  END
>  <id>  (29) 
FRU_029

>  <group>  (29) 
Fruity

>  <compound_name>  (29) 
Methyl anthranilate

$$$$
FRU_030_Furaneol
     RDKit          3D

 17 17  0  0  0  0  0  0  0  0999 V2000
    2.4218   -0.6117   -0.5061 C   0  0  0  0  0  0  0  0  0  0  0  0
    1.0451   -0.2692   -0.0411 C   0  0  0  0  0  0  0  0  0  0  0  0
    0.6494    0.9289    0.3491 C   0  0  0  0  0  0  0  0  0  0  0  0
    1.4444    2.0701    0.3948 O   0  0  0  0  0  0  0  0  0  0  0  0
   -0.7478    0.8347    0.7170 C   0  0  0  0  0  0  0  0  0  0  0  0
   -1.4572    1.7778    1.1564 O   0  0  0  0  0  0  0  0  0  0  0  0
   -1.1933   -0.5753    0.5110 C   0  0  0  0  0  0  0  0  0  0  0  0
   -2.2982   -0.6736   -0.5363 C   0  0  0  0  0  0  0  0  0  0  0  0
    0.0028   -1.1929    0.0331 O   0  0  0  0  0  0  0  0  0  0  0  0
    2.4734   -1.6892   -0.7673 H   0  0  0  0  0  0  0  0  0  0  0  0
    2.6761   -0.0100   -1.4038 H   0  0  0  0  0  0  0  0  0  0  0  0
    3.1550   -0.4002    0.3004 H   0  0  0  0  0  0  0  0  0  0  0  0
    1.0629    2.9543    0.7078 H   0  0  0  0  0  0  0  0  0  0  0  0
   -1.5073   -1.0346    1.4728 H   0  0  0  0  0  0  0  0  0  0  0  0
   -3.2090   -0.1474   -0.1796 H   0  0  0  0  0  0  0  0  0  0  0  0
   -2.5504   -1.7405   -0.7118 H   0  0  0  0  0  0  0  0  0  0  0  0
   -1.9675   -0.2213   -1.4962 H   0  0  0  0  0  0  0  0  0  0  0  0
  1  2  1  0
  2  3  2  0
  3  4  1  0
  3  5  1  0
  5  6  2  0
  5  7  1  0
  7  8  1  0
  7  9  1  0
  9  2  1  0
  1 10  1  0
  1 11  1  0
  1 12  1  0
  4 13  1  0
  7 14  1  0
  8 15  1  0
  8 16  1  0
  8 17  1  0
M  END
>  <id>  (30) 
FRU_030

>  <group>  (30) 
Fruity

>  <compound_name>  (30) 
Furaneol

$$$$
FLO_031_Linalool
     RDKit          3D

 29 28  0  0  0  0  0  0  0  0999 V2000
   -3.8662   -1.3191   -0.2513 C   0  0  0  0  0  0  0  0  0  0  0  0
   -2.6142   -0.4806   -0.2548 C   0  0  0  0  0  0  0  0  0  0  0  0
   -2.7203    0.9547    0.1983 C   0  0  0  0  0  0  0  0  0  0  0  0
   -1.4497   -1.0116   -0.6925 C   0  0  0  0  0  0  0  0  0  0  0  0
   -0.1342   -0.2731   -0.7127 C   0  0  0  0  0  0  0  0  0  0  0  0
    0.5969   -0.4270    0.6324 C   0  0  0  0  0  0  0  0  0  0  0  0
    1.8687    0.4488    0.7562 C   0  0  0  0  0  0  0  0  0  0  0  0
    2.4522    0.2692    2.1718 C   0  0  0  0  0  0  0  0  0  0  0  0
    1.5135    1.8019    0.5791 O   0  0  0  0  0  0  0  0  0  0  0  0
    2.9142    0.0182   -0.2648 C   0  0  0  0  0  0  0  0  0  0  0  0
    2.9710    0.5209   -1.5040 C   0  0  0  0  0  0  0  0  0  0  0  0
   -4.3094   -1.3195    0.7666 H   0  0  0  0  0  0  0  0  0  0  0  0
   -3.6680   -2.3728   -0.5429 H   0  0  0  0  0  0  0  0  0  0  0  0
   -4.6005   -0.8887   -0.9641 H   0  0  0  0  0  0  0  0  0  0  0  0
   -2.4711    1.6380   -0.6403 H   0  0  0  0  0  0  0  0  0  0  0  0
   -3.7540    1.1875    0.5314 H   0  0  0  0  0  0  0  0  0  0  0  0
   -2.0360    1.1449    1.0500 H   0  0  0  0  0  0  0  0  0  0  0  0
   -1.4314   -2.0431   -1.0346 H   0  0  0  0  0  0  0  0  0  0  0  0
   -0.2857    0.7961   -0.9686 H   0  0  0  0  0  0  0  0  0  0  0  0
    0.4884   -0.7182   -1.5169 H   0  0  0  0  0  0  0  0  0  0  0  0
    0.8662   -1.4983    0.7714 H   0  0  0  0  0  0  0  0  0  0  0  0
   -0.1009   -0.1561    1.4546 H   0  0  0  0  0  0  0  0  0  0  0  0
    3.3888    0.8569    2.2844 H   0  0  0  0  0  0  0  0  0  0  0  0
    2.6833   -0.7997    2.3725 H   0  0  0  0  0  0  0  0  0  0  0  0
    1.7278    0.6239    2.9363 H   0  0  0  0  0  0  0  0  0  0  0  0
    2.3390    2.3487    0.6641 H   0  0  0  0  0  0  0  0  0  0  0  0
    3.6351   -0.7476    0.0096 H   0  0  0  0  0  0  0  0  0  0  0  0
    2.2673    1.2757   -1.8403 H   0  0  0  0  0  0  0  0  0  0  0  0
    3.7292    0.1700   -2.1964 H   0  0  0  0  0  0  0  0  0  0  0  0
  1  2  1  0
  2  3  1  0
  2  4  2  3
  4  5  1  0
  5  6  1  0
  6  7  1  0
  7  8  1  0
  7  9  1  0
  7 10  1  0
 10 11  2  0
  1 12  1  0
  1 13  1  0
  1 14  1  0
  3 15  1  0
  3 16  1  0
  3 17  1  0
  4 18  1  0
  5 19  1  0
  5 20  1  0
  6 21  1  0
  6 22  1  0
  8 23  1  0
  8 24  1  0
  8 25  1  0
  9 26  1  0
 10 27  1  0
 11 28  1  0
 11 29  1  0
M  END
>  <id>  (31) 
FLO_031

>  <group>  (31) 
Floral

>  <compound_name>  (31) 
Linalool

$$$$
FLO_032_Geraniol
     RDKit          3D

 29 28  0  0  0  0  0  0  0  0999 V2000
    4.3288    0.3264   -0.2289 C   0  0  0  0  0  0  0  0  0  0  0  0
    2.8995   -0.1496   -0.1937 C   0  0  0  0  0  0  0  0  0  0  0  0
    2.6262   -1.5350    0.3379 C   0  0  0  0  0  0  0  0  0  0  0  0
    1.9135    0.6459   -0.6675 C   0  0  0  0  0  0  0  0  0  0  0  0
    0.4495    0.2827   -0.6560 C   0  0  0  0  0  0  0  0  0  0  0  0
   -0.2034    0.6964    0.6677 C   0  0  0  0  0  0  0  0  0  0  0  0
   -1.6570    0.2785    0.7036 C   0  0  0  0  0  0  0  0  0  0  0  0
   -2.0608   -0.9174    1.5336 C   0  0  0  0  0  0  0  0  0  0  0  0
   -2.5655    0.9921    0.0012 C   0  0  0  0  0  0  0  0  0  0  0  0
   -4.0383    0.6739   -0.0360 C   0  0  0  0  0  0  0  0  0  0  0  0
   -4.2652   -0.5388   -0.7010 O   0  0  0  0  0  0  0  0  0  0  0  0
    4.4137    1.3784   -0.5765 H   0  0  0  0  0  0  0  0  0  0  0  0
    4.7662    0.2625    0.7896 H   0  0  0  0  0  0  0  0  0  0  0  0
    4.9161   -0.3195   -0.9147 H   0  0  0  0  0  0  0  0  0  0  0  0
    3.5649   -2.0155    0.6868 H   0  0  0  0  0  0  0  0  0  0  0  0
    2.1952   -2.1719   -0.4626 H   0  0  0  0  0  0  0  0  0  0  0  0
    1.9260   -1.4903    1.1967 H   0  0  0  0  0  0  0  0  0  0  0  0
    2.1659    1.6252   -1.0656 H   0  0  0  0  0  0  0  0  0  0  0  0
    0.3043   -0.8029   -0.8407 H   0  0  0  0  0  0  0  0  0  0  0  0
   -0.0472    0.8243   -1.4898 H   0  0  0  0  0  0  0  0  0  0  0  0
    0.3474    0.2379    1.5156 H   0  0  0  0  0  0  0  0  0  0  0  0
   -0.1280    1.7989    0.7979 H   0  0  0  0  0  0  0  0  0  0  0  0
   -1.1833   -1.3793    2.0321 H   0  0  0  0  0  0  0  0  0  0  0  0
   -2.7807   -0.6092    2.3203 H   0  0  0  0  0  0  0  0  0  0  0  0
   -2.5248   -1.6910    0.8875 H   0  0  0  0  0  0  0  0  0  0  0  0
   -2.2341    1.8598   -0.5635 H   0  0  0  0  0  0  0  0  0  0  0  0
   -4.5836    1.4965   -0.5512 H   0  0  0  0  0  0  0  0  0  0  0  0
   -4.4390    0.6083    0.9970 H   0  0  0  0  0  0  0  0  0  0  0  0
   -4.1064   -0.3674   -1.6661 H   0  0  0  0  0  0  0  0  0  0  0  0
  1  2  1  0
  2  3  1  0
  2  4  2  3
  4  5  1  0
  5  6  1  0
  6  7  1  0
  7  8  1  0
  7  9  2  3
  9 10  1  0
 10 11  1  0
  1 12  1  0
  1 13  1  0
  1 14  1  0
  3 15  1  0
  3 16  1  0
  3 17  1  0
  4 18  1  0
  5 19  1  0
  5 20  1  0
  6 21  1  0
  6 22  1  0
  8 23  1  0
  8 24  1  0
  8 25  1  0
  9 26  1  0
 10 27  1  0
 10 28  1  0
 11 29  1  0
M  END
>  <id>  (32) 
FLO_032

>  <group>  (32) 
Floral

>  <compound_name>  (32) 
Geraniol

$$$$
FLO_033_Citronellol
     RDKit          3D

 31 30  0  0  0  0  0  0  0  0999 V2000
   -2.9378   -1.3076   -0.0006 C   0  0  0  0  0  0  0  0  0  0  0  0
   -3.0488    0.1944    0.1221 C   0  0  0  0  0  0  0  0  0  0  0  0
   -4.3785    0.8626   -0.1148 C   0  0  0  0  0  0  0  0  0  0  0  0
   -1.9902    0.9658    0.4556 C   0  0  0  0  0  0  0  0  0  0  0  0
   -0.5940    0.4429    0.6850 C   0  0  0  0  0  0  0  0  0  0  0  0
    0.1903    0.3980   -0.6380 C   0  0  0  0  0  0  0  0  0  0  0  0
    1.6050   -0.2193   -0.5205 C   0  0  0  0  0  0  0  0  0  0  0  0
    1.5421   -1.7119   -0.1515 C   0  0  0  0  0  0  0  0  0  0  0  0
    2.5020    0.5831    0.4541 C   0  0  0  0  0  0  0  0  0  0  0  0
    3.9947    0.2430    0.3312 C   0  0  0  0  0  0  0  0  0  0  0  0
    4.4671    0.5016   -0.9636 O   0  0  0  0  0  0  0  0  0  0  0  0
   -2.1749   -1.5789   -0.7583 H   0  0  0  0  0  0  0  0  0  0  0  0
   -2.6589   -1.7478    0.9796 H   0  0  0  0  0  0  0  0  0  0  0  0
   -3.9006   -1.7620   -0.3137 H   0  0  0  0  0  0  0  0  0  0  0  0
   -4.6940    1.4064    0.8008 H   0  0  0  0  0  0  0  0  0  0  0  0
   -4.2905    1.5851   -0.9538 H   0  0  0  0  0  0  0  0  0  0  0  0
   -5.1692    0.1272   -0.3711 H   0  0  0  0  0  0  0  0  0  0  0  0
   -2.1307    2.0404    0.5448 H   0  0  0  0  0  0  0  0  0  0  0  0
   -0.6261   -0.5519    1.1725 H   0  0  0  0  0  0  0  0  0  0  0  0
   -0.0852    1.1363    1.3873 H   0  0  0  0  0  0  0  0  0  0  0  0
   -0.3854   -0.1755   -1.3962 H   0  0  0  0  0  0  0  0  0  0  0  0
    0.2840    1.4342   -1.0321 H   0  0  0  0  0  0  0  0  0  0  0  0
    2.0505   -0.1531   -1.5379 H   0  0  0  0  0  0  0  0  0  0  0  0
    2.5183   -2.1996   -0.3533 H   0  0  0  0  0  0  0  0  0  0  0  0
    0.7775   -2.2326   -0.7666 H   0  0  0  0  0  0  0  0  0  0  0  0
    1.2953   -1.8510    0.9219 H   0  0  0  0  0  0  0  0  0  0  0  0
    2.3796    1.6713    0.2600 H   0  0  0  0  0  0  0  0  0  0  0  0
    2.1853    0.3952    1.5029 H   0  0  0  0  0  0  0  0  0  0  0  0
    4.5712    0.8412    1.0728 H   0  0  0  0  0  0  0  0  0  0  0  0
    4.1672   -0.8256    0.5734 H   0  0  0  0  0  0  0  0  0  0  0  0
    4.5345    1.4884   -1.0496 H   0  0  0  0  0  0  0  0  0  0  0  0
  1  2  1  0
  2  3  1  0
  2  4  2  3
  4  5  1  0
  5  6  1  0
  6  7  1  0
  7  8  1  0
  7  9  1  0
  9 10  1  0
 10 11  1  0
  1 12  1  0
  1 13  1  0
  1 14  1  0
  3 15  1  0
  3 16  1  0
  3 17  1  0
  4 18  1  0
  5 19  1  0
  5 20  1  0
  6 21  1  0
  6 22  1  0
  7 23  1  0
  8 24  1  0
  8 25  1  0
  8 26  1  0
  9 27  1  0
  9 28  1  0
 10 29  1  0
 10 30  1  0
 11 31  1  0
M  END
>  <id>  (33) 
FLO_033

>  <group>  (33) 
Floral

>  <compound_name>  (33) 
Citronellol

$$$$
FLO_034_Farnesol
     RDKit          3D

 42 41  0  0  0  0  0  0  0  0999 V2000
   -4.2554    1.2690    1.3796 C   0  0  0  0  0  0  0  0  0  0  0  0
   -3.2708    2.3022    0.8852 C   0  0  0  0  0  0  0  0  0  0  0  0
   -3.3375    3.7115    1.4140 C   0  0  0  0  0  0  0  0  0  0  0  0
   -2.3232    1.9952   -0.0257 C   0  0  0  0  0  0  0  0  0  0  0  0
   -2.1670    0.6159   -0.6189 C   0  0  0  0  0  0  0  0  0  0  0  0
   -1.0056    0.5692   -1.6177 C   0  0  0  0  0  0  0  0  0  0  0  0
   -0.8428   -0.8278   -2.1852 C   0  0  0  0  0  0  0  0  0  0  0  0
   -1.6340   -1.2072   -3.4100 C   0  0  0  0  0  0  0  0  0  0  0  0
   -0.0627   -1.7704   -1.6074 C   0  0  0  0  0  0  0  0  0  0  0  0
    0.7962   -1.5459   -0.3884 C   0  0  0  0  0  0  0  0  0  0  0  0
    2.1638   -0.9758   -0.7820 C   0  0  0  0  0  0  0  0  0  0  0  0
    2.9781   -0.6414    0.4478 C   0  0  0  0  0  0  0  0  0  0  0  0
    3.0781    0.7980    0.8949 C   0  0  0  0  0  0  0  0  0  0  0  0
    3.5861   -1.6390    1.1279 C   0  0  0  0  0  0  0  0  0  0  0  0
    4.4123   -1.4280    2.3707 C   0  0  0  0  0  0  0  0  0  0  0  0
    5.5762   -0.7056    2.0745 O   0  0  0  0  0  0  0  0  0  0  0  0
   -4.8515    0.8759    0.5296 H   0  0  0  0  0  0  0  0  0  0  0  0
   -3.7137    0.4325    1.8688 H   0  0  0  0  0  0  0  0  0  0  0  0
   -4.9600    1.6997    2.1209 H   0  0  0  0  0  0  0  0  0  0  0  0
   -4.1557    3.8344    2.1537 H   0  0  0  0  0  0  0  0  0  0  0  0
   -3.5168    4.4184    0.5764 H   0  0  0  0  0  0  0  0  0  0  0  0
   -2.3784    3.9719    1.9099 H   0  0  0  0  0  0  0  0  0  0  0  0
   -1.6381    2.7771   -0.3476 H   0  0  0  0  0  0  0  0  0  0  0  0
   -3.1068    0.3347   -1.1421 H   0  0  0  0  0  0  0  0  0  0  0  0
   -1.9828   -0.1133    0.1986 H   0  0  0  0  0  0  0  0  0  0  0  0
   -0.0706    0.9197   -1.1339 H   0  0  0  0  0  0  0  0  0  0  0  0
   -1.2110    1.2814   -2.4466 H   0  0  0  0  0  0  0  0  0  0  0  0
   -2.2695   -0.3659   -3.7582 H   0  0  0  0  0  0  0  0  0  0  0  0
   -2.2965   -2.0684   -3.1791 H   0  0  0  0  0  0  0  0  0  0  0  0
   -0.9419   -1.4889   -4.2315 H   0  0  0  0  0  0  0  0  0  0  0  0
   -0.0263   -2.7627   -2.0505 H   0  0  0  0  0  0  0  0  0  0  0  0
    0.9467   -2.5256    0.1146 H   0  0  0  0  0  0  0  0  0  0  0  0
    0.2872   -0.8824    0.3420 H   0  0  0  0  0  0  0  0  0  0  0  0
    2.0306   -0.0683   -1.4081 H   0  0  0  0  0  0  0  0  0  0  0  0
    2.7136   -1.7133   -1.4080 H   0  0  0  0  0  0  0  0  0  0  0  0
    2.6966    0.9024    1.9320 H   0  0  0  0  0  0  0  0  0  0  0  0
    4.1330    1.1391    0.8500 H   0  0  0  0  0  0  0  0  0  0  0  0
    2.4727    1.4651    0.2461 H   0  0  0  0  0  0  0  0  0  0  0  0
    3.4710   -2.6625    0.7801 H   0  0  0  0  0  0  0  0  0  0  0  0
    3.8201   -0.8771    3.1308 H   0  0  0  0  0  0  0  0  0  0  0  0
    4.6799   -2.4147    2.8115 H   0  0  0  0  0  0  0  0  0  0  0  0
    6.1764   -1.3241    1.5813 H   0  0  0  0  0  0  0  0  0  0  0  0
  1  2  1  0
  2  3  1  0
  2  4  2  3
  4  5  1  0
  5  6  1  0
  6  7  1  0
  7  8  1  0
  7  9  2  3
  9 10  1  0
 10 11  1  0
 11 12  1  0
 12 13  1  0
 12 14  2  3
 14 15  1  0
 15 16  1  0
  1 17  1  0
  1 18  1  0
  1 19  1  0
  3 20  1  0
  3 21  1  0
  3 22  1  0
  4 23  1  0
  5 24  1  0
  5 25  1  0
  6 26  1  0
  6 27  1  0
  8 28  1  0
  8 29  1  0
  8 30  1  0
  9 31  1  0
 10 32  1  0
 10 33  1  0
 11 34  1  0
 11 35  1  0
 13 36  1  0
 13 37  1  0
 13 38  1  0
 14 39  1  0
 15 40  1  0
 15 41  1  0
 16 42  1  0
M  END
>  <id>  (34) 
FLO_034

>  <group>  (34) 
Floral

>  <compound_name>  (34) 
Farnesol

$$$$
FLO_035_Phenethyl alcohol
     RDKit          3D

 19 19  0  0  0  0  0  0  0  0999 V2000
    3.5890    0.3015   -0.0951 O   0  0  0  0  0  0  0  0  0  0  0  0
    2.2637   -0.0337   -0.4040 C   0  0  0  0  0  0  0  0  0  0  0  0
    1.3114    0.5619    0.6349 C   0  0  0  0  0  0  0  0  0  0  0  0
   -0.1180    0.2346    0.2955 C   0  0  0  0  0  0  0  0  0  0  0  0
   -0.8625    1.0875   -0.5367 C   0  0  0  0  0  0  0  0  0  0  0  0
   -2.1804    0.7657   -0.8763 C   0  0  0  0  0  0  0  0  0  0  0  0
   -2.7600   -0.4121   -0.3964 C   0  0  0  0  0  0  0  0  0  0  0  0
   -2.0214   -1.2722    0.4208 C   0  0  0  0  0  0  0  0  0  0  0  0
   -0.7032   -0.9543    0.7629 C   0  0  0  0  0  0  0  0  0  0  0  0
    3.8632   -0.2873    0.6559 H   0  0  0  0  0  0  0  0  0  0  0  0
    2.0216    0.3777   -1.4074 H   0  0  0  0  0  0  0  0  0  0  0  0
    2.1457   -1.1409   -0.4479 H   0  0  0  0  0  0  0  0  0  0  0  0
    1.4498    1.6647    0.6739 H   0  0  0  0  0  0  0  0  0  0  0  0
    1.5622    0.1616    1.6417 H   0  0  0  0  0  0  0  0  0  0  0  0
   -0.4223    1.9987   -0.9224 H   0  0  0  0  0  0  0  0  0  0  0  0
   -2.7513    1.4279   -1.5144 H   0  0  0  0  0  0  0  0  0  0  0  0
   -3.7797   -0.6602   -0.6612 H   0  0  0  0  0  0  0  0  0  0  0  0
   -2.4691   -2.1872    0.7866 H   0  0  0  0  0  0  0  0  0  0  0  0
   -0.1387   -1.6337    1.3896 H   0  0  0  0  0  0  0  0  0  0  0  0
  1  2  1  0
  2  3  1  0
  3  4  1  0
  4  5  2  0
  5  6  1  0
  6  7  2  0
  7  8  1  0
  8  9  2  0
  9  4  1  0
  1 10  1  0
  2 11  1  0
  2 12  1  0
  3 13  1  0
  3 14  1  0
  5 15  1  0
  6 16  1  0
  7 17  1  0
  8 18  1  0
  9 19  1  0
M  END
>  <id>  (35) 
FLO_035

>  <group>  (35) 
Floral

>  <compound_name>  (35) 
Phenethyl alcohol

$$$$
FLO_036_Benzyl alcohol
     RDKit          3D

 16 16  0  0  0  0  0  0  0  0999 V2000
    2.6234    0.4801    0.8202 O   0  0  0  0  0  0  0  0  0  0  0  0
    2.0374   -0.1371   -0.2928 C   0  0  0  0  0  0  0  0  0  0  0  0
    0.5388   -0.0558   -0.1988 C   0  0  0  0  0  0  0  0  0  0  0  0
   -0.1928   -1.1026    0.3860 C   0  0  0  0  0  0  0  0  0  0  0  0
   -1.5834   -1.0098    0.5028 C   0  0  0  0  0  0  0  0  0  0  0  0
   -2.2502    0.1312    0.0476 C   0  0  0  0  0  0  0  0  0  0  0  0
   -1.5269    1.1833   -0.5213 C   0  0  0  0  0  0  0  0  0  0  0  0
   -0.1362    1.0944   -0.6399 C   0  0  0  0  0  0  0  0  0  0  0  0
    2.5196   -0.1496    1.5810 H   0  0  0  0  0  0  0  0  0  0  0  0
    2.3725   -1.1967   -0.3714 H   0  0  0  0  0  0  0  0  0  0  0  0
    2.3850    0.3804   -1.2123 H   0  0  0  0  0  0  0  0  0  0  0  0
    0.3126   -1.9882    0.7510 H   0  0  0  0  0  0  0  0  0  0  0  0
   -2.1438   -1.8209    0.9496 H   0  0  0  0  0  0  0  0  0  0  0  0
   -3.3263    0.2020    0.1398 H   0  0  0  0  0  0  0  0  0  0  0  0
   -2.0435    2.0693   -0.8672 H   0  0  0  0  0  0  0  0  0  0  0  0
    0.4137    1.9201   -1.0744 H   0  0  0  0  0  0  0  0  0  0  0  0
  1  2  1  0
  2  3  1  0
  3  4  2  0
  4  5  1  0
  5  6  2  0
  6  7  1  0
  7  8  2  0
  8  3  1  0
  1  9  1  0
  2 10  1  0
  2 11  1  0
  4 12  1  0
  5 13  1  0
  6 14  1  0
  7 15  1  0
  8 16  1  0
M  END
>  <id>  (36) 
FLO_036

>  <group>  (36) 
Floral

>  <compound_name>  (36) 
Benzyl alcohol

$$$$
FLO_037_Benzyl acetate
     RDKit          3D

 21 21  0  0  0  0  0  0  0  0999 V2000
    3.3312    1.0100   -0.7199 C   0  0  0  0  0  0  0  0  0  0  0  0
    2.2858    0.3116    0.0810 C   0  0  0  0  0  0  0  0  0  0  0  0
    1.9970    0.7342    1.2335 O   0  0  0  0  0  0  0  0  0  0  0  0
    1.6734   -0.8352   -0.4364 O   0  0  0  0  0  0  0  0  0  0  0  0
    0.6510   -1.5543    0.2502 C   0  0  0  0  0  0  0  0  0  0  0  0
   -0.6341   -0.7721    0.2473 C   0  0  0  0  0  0  0  0  0  0  0  0
   -1.1380   -0.2168    1.4356 C   0  0  0  0  0  0  0  0  0  0  0  0
   -2.3240    0.5242    1.4182 C   0  0  0  0  0  0  0  0  0  0  0  0
   -3.0114    0.7184    0.2168 C   0  0  0  0  0  0  0  0  0  0  0  0
   -2.5132    0.1732   -0.9697 C   0  0  0  0  0  0  0  0  0  0  0  0
   -1.3276   -0.5683   -0.9567 C   0  0  0  0  0  0  0  0  0  0  0  0
    3.2657    2.1067   -0.5589 H   0  0  0  0  0  0  0  0  0  0  0  0
    3.1860    0.7974   -1.7998 H   0  0  0  0  0  0  0  0  0  0  0  0
    4.3349    0.6526   -0.4097 H   0  0  0  0  0  0  0  0  0  0  0  0
    0.9837   -1.7925    1.2844 H   0  0  0  0  0  0  0  0  0  0  0  0
    0.4851   -2.5204   -0.2718 H   0  0  0  0  0  0  0  0  0  0  0  0
   -0.6139   -0.3549    2.3731 H   0  0  0  0  0  0  0  0  0  0  0  0
   -2.7092    0.9493    2.3359 H   0  0  0  0  0  0  0  0  0  0  0  0
   -3.9288    1.2927    0.2051 H   0  0  0  0  0  0  0  0  0  0  0  0
   -3.0448    0.3265   -1.9000 H   0  0  0  0  0  0  0  0  0  0  0  0
   -0.9487   -0.9822   -1.8830 H   0  0  0  0  0  0  0  0  0  0  0  0
  1  2  1  0
  2  3  2  0
  2  4  1  0
  4  5  1  0
  5  6  1  0
  6  7  2  0
  7  8  1  0
  8  9  2  0
  9 10  1  0
 10 11  2  0
 11  6  1  0
  1 12  1  0
  1 13  1  0
  1 14  1  0
  5 15  1  0
  5 16  1  0
  7 17  1  0
  8 18  1  0
  9 19  1  0
 10 20  1  0
 11 21  1  0
M  END
>  <id>  (37) 
FLO_037

>  <group>  (37) 
Floral

>  <compound_name>  (37) 
Benzyl acetate

$$$$
FLO_038_Phenethyl acetate
     RDKit          3D

 24 24  0  0  0  0  0  0  0  0999 V2000
    4.6489   -0.1166    0.3372 C   0  0  0  0  0  0  0  0  0  0  0  0
    3.2094   -0.4967    0.4130 C   0  0  0  0  0  0  0  0  0  0  0  0
    2.8100   -1.2423    1.3484 O   0  0  0  0  0  0  0  0  0  0  0  0
    2.3124    0.0088   -0.5347 O   0  0  0  0  0  0  0  0  0  0  0  0
    0.9096   -0.2468   -0.5019 C   0  0  0  0  0  0  0  0  0  0  0  0
    0.2332    0.6084    0.5721 C   0  0  0  0  0  0  0  0  0  0  0  0
   -1.2525    0.3681    0.5835 C   0  0  0  0  0  0  0  0  0  0  0  0
   -1.7965   -0.6674    1.3619 C   0  0  0  0  0  0  0  0  0  0  0  0
   -3.1736   -0.9103    1.3473 C   0  0  0  0  0  0  0  0  0  0  0  0
   -4.0144   -0.1291    0.5497 C   0  0  0  0  0  0  0  0  0  0  0  0
   -3.4789    0.8939   -0.2379 C   0  0  0  0  0  0  0  0  0  0  0  0
   -2.1024    1.1402   -0.2263 C   0  0  0  0  0  0  0  0  0  0  0  0
    4.9032    0.2042   -0.6947 H   0  0  0  0  0  0  0  0  0  0  0  0
    5.2866   -0.9837    0.6105 H   0  0  0  0  0  0  0  0  0  0  0  0
    4.8475    0.7205    1.0382 H   0  0  0  0  0  0  0  0  0  0  0  0
    0.7219   -1.3281   -0.3196 H   0  0  0  0  0  0  0  0  0  0  0  0
    0.4850    0.0132   -1.4952 H   0  0  0  0  0  0  0  0  0  0  0  0
    0.4437    1.6822    0.3742 H   0  0  0  0  0  0  0  0  0  0  0  0
    0.6592    0.3687    1.5702 H   0  0  0  0  0  0  0  0  0  0  0  0
   -1.1546   -1.2856    1.9773 H   0  0  0  0  0  0  0  0  0  0  0  0
   -3.5886   -1.7064    1.9518 H   0  0  0  0  0  0  0  0  0  0  0  0
   -5.0798   -0.3192    0.5385 H   0  0  0  0  0  0  0  0  0  0  0  0
   -4.1302    1.4940   -0.8602 H   0  0  0  0  0  0  0  0  0  0  0  0
   -1.6991    1.9300   -0.8480 H   0  0  0  0  0  0  0  0  0  0  0  0
  1  2  1  0
  2  3  2  0
  2  4  1  0
  4  5  1  0
  5  6  1  0
  6  7  1  0
  7  8  2  0
  8  9  1  0
  9 10  2  0
 10 11  1  0
 11 12  2  0
 12  7  1  0
  1 13  1  0
  1 14  1  0
  1 15  1  0
  5 16  1  0
  5 17  1  0
  6 18  1  0
  6 19  1  0
  8 20  1  0
  9 21  1  0
 10 22  1  0
 11 23  1  0
 12 24  1  0
M  END
>  <id>  (38) 
FLO_038

>  <group>  (38) 
Floral

>  <compound_name>  (38) 
Phenethyl acetate

$$$$
FLO_039_Geranyl acetate
     RDKit          3D

 34 33  0  0  0  0  0  0  0  0999 V2000
   -2.4909    1.4234    1.8176 C   0  0  0  0  0  0  0  0  0  0  0  0
   -3.2601    1.0239    0.5800 C   0  0  0  0  0  0  0  0  0  0  0  0
   -4.7506    1.2406    0.5295 C   0  0  0  0  0  0  0  0  0  0  0  0
   -2.6500    0.4883   -0.5004 C   0  0  0  0  0  0  0  0  0  0  0  0
   -1.1756    0.1816   -0.5807 C   0  0  0  0  0  0  0  0  0  0  0  0
   -0.8829   -1.2255   -0.0470 C   0  0  0  0  0  0  0  0  0  0  0  0
    0.6005   -1.5176   -0.0922 C   0  0  0  0  0  0  0  0  0  0  0  0
    1.1431   -2.4336   -1.1638 C   0  0  0  0  0  0  0  0  0  0  0  0
    1.4082   -0.9576    0.8358 C   0  0  0  0  0  0  0  0  0  0  0  0
    2.9015   -1.1554    0.8795 C   0  0  0  0  0  0  0  0  0  0  0  0
    3.5250   -0.5660   -0.2598 O   0  0  0  0  0  0  0  0  0  0  0  0
    3.5670    0.8146   -0.4838 C   0  0  0  0  0  0  0  0  0  0  0  0
    3.0971    1.6210    0.3643 O   0  0  0  0  0  0  0  0  0  0  0  0
    4.2190    1.3380   -1.7177 C   0  0  0  0  0  0  0  0  0  0  0  0
   -3.1657    1.8155    2.6065 H   0  0  0  0  0  0  0  0  0  0  0  0
   -1.9533    0.5493    2.2379 H   0  0  0  0  0  0  0  0  0  0  0  0
   -1.7615    2.2223    1.5686 H   0  0  0  0  0  0  0  0  0  0  0  0
   -5.1329    1.6931    1.4681 H   0  0  0  0  0  0  0  0  0  0  0  0
   -5.0029    1.9207   -0.3115 H   0  0  0  0  0  0  0  0  0  0  0  0
   -5.2656    0.2685    0.3773 H   0  0  0  0  0  0  0  0  0  0  0  0
   -3.2502    0.2341   -1.3709 H   0  0  0  0  0  0  0  0  0  0  0  0
   -0.8677    0.2282   -1.6479 H   0  0  0  0  0  0  0  0  0  0  0  0
   -0.5805    0.9461   -0.0379 H   0  0  0  0  0  0  0  0  0  0  0  0
   -1.4427   -1.9659   -0.6588 H   0  0  0  0  0  0  0  0  0  0  0  0
   -1.2480   -1.3327    0.9970 H   0  0  0  0  0  0  0  0  0  0  0  0
    0.3349   -2.8013   -1.8297 H   0  0  0  0  0  0  0  0  0  0  0  0
    1.8765   -1.8901   -1.7946 H   0  0  0  0  0  0  0  0  0  0  0  0
    1.6328   -3.3148   -0.6993 H   0  0  0  0  0  0  0  0  0  0  0  0
    0.9726   -0.3179    1.5994 H   0  0  0  0  0  0  0  0  0  0  0  0
    3.3126   -0.6991    1.8058 H   0  0  0  0  0  0  0  0  0  0  0  0
    3.1374   -2.2395    0.9082 H   0  0  0  0  0  0  0  0  0  0  0  0
    3.6802    2.2385   -2.0811 H   0  0  0  0  0  0  0  0  0  0  0  0
    5.2726    1.6056   -1.4943 H   0  0  0  0  0  0  0  0  0  0  0  0
    4.1998    0.5640   -2.5133 H   0  0  0  0  0  0  0  0  0  0  0  0
  1  2  1  0
  2  3  1  0
  2  4  2  3
  4  5  1  0
  5  6  1  0
  6  7  1  0
  7  8  1  0
  7  9  2  3
  9 10  1  0
 10 11  1  0
 11 12  1  0
 12 13  2  0
 12 14  1  0
  1 15  1  0
  1 16  1  0
  1 17  1  0
  3 18  1  0
  3 19  1  0
  3 20  1  0
  4 21  1  0
  5 22  1  0
  5 23  1  0
  6 24  1  0
  6 25  1  0
  8 26  1  0
  8 27  1  0
  8 28  1  0
  9 29  1  0
 10 30  1  0
 10 31  1  0
 14 32  1  0
 14 33  1  0
 14 34  1  0
M  END
>  <id>  (39) 
FLO_039

>  <group>  (39) 
Floral

>  <compound_name>  (39) 
Geranyl acetate

$$$$
FLO_040_Citronellyl acetate
     RDKit          3D

 36 35  0  0  0  0  0  0  0  0999 V2000
   -5.2970   -0.4636   -1.0257 C   0  0  0  0  0  0  0  0  0  0  0  0
   -3.8498   -0.0647   -0.8960 C   0  0  0  0  0  0  0  0  0  0  0  0
   -3.5257    1.4056   -0.7927 C   0  0  0  0  0  0  0  0  0  0  0  0
   -2.8858   -1.0134   -0.9157 C   0  0  0  0  0  0  0  0  0  0  0  0
   -1.4118   -0.7288   -0.7673 C   0  0  0  0  0  0  0  0  0  0  0  0
   -1.0124   -0.7025    0.7185 C   0  0  0  0  0  0  0  0  0  0  0  0
    0.4617   -0.3046    0.9740 C   0  0  0  0  0  0  0  0  0  0  0  0
    0.7338    1.1502    0.5523 C   0  0  0  0  0  0  0  0  0  0  0  0
    1.4462   -1.3030    0.3157 C   0  0  0  0  0  0  0  0  0  0  0  0
    2.8817   -1.1758    0.8383 C   0  0  0  0  0  0  0  0  0  0  0  0
    3.5170   -0.0374    0.2650 O   0  0  0  0  0  0  0  0  0  0  0  0
    4.8303    0.3282    0.5709 C   0  0  0  0  0  0  0  0  0  0  0  0
    5.5115   -0.3426    1.3933 O   0  0  0  0  0  0  0  0  0  0  0  0
    5.4128    1.5547   -0.0444 C   0  0  0  0  0  0  0  0  0  0  0  0
   -5.8744   -0.0471   -0.1737 H   0  0  0  0  0  0  0  0  0  0  0  0
   -5.4310   -1.5667   -1.0277 H   0  0  0  0  0  0  0  0  0  0  0  0
   -5.7085   -0.0570   -1.9732 H   0  0  0  0  0  0  0  0  0  0  0  0
   -4.4548    2.0140   -0.7806 H   0  0  0  0  0  0  0  0  0  0  0  0
   -2.9677    1.6159    0.1423 H   0  0  0  0  0  0  0  0  0  0  0  0
   -2.9215    1.7248   -1.6674 H   0  0  0  0  0  0  0  0  0  0  0  0
   -3.1695   -2.0571   -1.0223 H   0  0  0  0  0  0  0  0  0  0  0  0
   -0.8573   -1.5435   -1.2788 H   0  0  0  0  0  0  0  0  0  0  0  0
   -1.1451    0.2186   -1.2770 H   0  0  0  0  0  0  0  0  0  0  0  0
   -1.1930   -1.7102    1.1543 H   0  0  0  0  0  0  0  0  0  0  0  0
   -1.6709    0.0008    1.2723 H   0  0  0  0  0  0  0  0  0  0  0  0
    0.6053   -0.3578    2.0765 H   0  0  0  0  0  0  0  0  0  0  0  0
   -0.0935    1.8137    0.8829 H   0  0  0  0  0  0  0  0  0  0  0  0
    0.8438    1.2353   -0.5492 H   0  0  0  0  0  0  0  0  0  0  0  0
    1.6633    1.5215    1.0315 H   0  0  0  0  0  0  0  0  0  0  0  0
    1.1028   -2.3382    0.5334 H   0  0  0  0  0  0  0  0  0  0  0  0
    1.4489   -1.1792   -0.7891 H   0  0  0  0  0  0  0  0  0  0  0  0
    2.8849   -1.0983    1.9475 H   0  0  0  0  0  0  0  0  0  0  0  0
    3.4493   -2.0874    0.5501 H   0  0  0  0  0  0  0  0  0  0  0  0
    5.3042    2.4074    0.6575 H   0  0  0  0  0  0  0  0  0  0  0  0
    6.4893    1.3958   -0.2660 H   0  0  0  0  0  0  0  0  0  0  0  0
    4.8831    1.7923   -0.9906 H   0  0  0  0  0  0  0  0  0  0  0  0
  1  2  1  0
  2  3  1  0
  2  4  2  3
  4  5  1  0
  5  6  1  0
  6  7  1  0
  7  8  1  0
  7  9  1  0
  9 10  1  0
 10 11  1  0
 11 12  1  0
 12 13  2  0
 12 14  1  0
  1 15  1  0
  1 16  1  0
  1 17  1  0
  3 18  1  0
  3 19  1  0
  3 20  1  0
  4 21  1  0
  5 22  1  0
  5 23  1  0
  6 24  1  0
  6 25  1  0
  7 26  1  0
  8 27  1  0
  8 28  1  0
  8 29  1  0
  9 30  1  0
  9 31  1  0
 10 32  1  0
 10 33  1  0
 14 34  1  0
 14 35  1  0
 14 36  1  0
M  END
>  <id>  (40) 
FLO_040

>  <group>  (40) 
Floral

>  <compound_name>  (40) 
Citronellyl acetate

$$$$
FLO_041_Benzyl salicylate
     RDKit          3D

 29 30  0  0  0  0  0  0  0  0999 V2000
    1.1735   -1.9233    1.7526 O   0  0  0  0  0  0  0  0  0  0  0  0
    1.0665   -0.9530    0.9533 C   0  0  0  0  0  0  0  0  0  0  0  0
   -0.2030   -0.5155    0.5597 O   0  0  0  0  0  0  0  0  0  0  0  0
   -1.4057   -1.1195    1.0226 C   0  0  0  0  0  0  0  0  0  0  0  0
   -2.5794   -0.4131    0.4108 C   0  0  0  0  0  0  0  0  0  0  0  0
   -3.0855   -0.8270   -0.8324 C   0  0  0  0  0  0  0  0  0  0  0  0
   -4.1542   -0.1428   -1.4203 C   0  0  0  0  0  0  0  0  0  0  0  0
   -4.7153    0.9646   -0.7781 C   0  0  0  0  0  0  0  0  0  0  0  0
   -4.2053    1.3927    0.4507 C   0  0  0  0  0  0  0  0  0  0  0  0
   -3.1367    0.7113    1.0420 C   0  0  0  0  0  0  0  0  0  0  0  0
    2.2749   -0.2696    0.4255 C   0  0  0  0  0  0  0  0  0  0  0  0
    2.1192    0.8105   -0.4651 C   0  0  0  0  0  0  0  0  0  0  0  0
    3.2337    1.4761   -0.9808 C   0  0  0  0  0  0  0  0  0  0  0  0
    4.5188    1.0756   -0.6172 C   0  0  0  0  0  0  0  0  0  0  0  0
    4.6938    0.0079    0.2638 C   0  0  0  0  0  0  0  0  0  0  0  0
    3.5832   -0.6700    0.7897 C   0  0  0  0  0  0  0  0  0  0  0  0
    3.7859   -1.7342    1.6685 O   0  0  0  0  0  0  0  0  0  0  0  0
   -1.4175   -2.1954    0.7411 H   0  0  0  0  0  0  0  0  0  0  0  0
   -1.4555   -1.0541    2.1318 H   0  0  0  0  0  0  0  0  0  0  0  0
   -2.6530   -1.6772   -1.3453 H   0  0  0  0  0  0  0  0  0  0  0  0
   -4.5448   -0.4687   -2.3757 H   0  0  0  0  0  0  0  0  0  0  0  0
   -5.5414    1.4940   -1.2351 H   0  0  0  0  0  0  0  0  0  0  0  0
   -4.6353    2.2553    0.9433 H   0  0  0  0  0  0  0  0  0  0  0  0
   -2.7440    1.0596    1.9893 H   0  0  0  0  0  0  0  0  0  0  0  0
    1.1342    1.1446   -0.7660 H   0  0  0  0  0  0  0  0  0  0  0  0
    3.0999    2.3047   -1.6644 H   0  0  0  0  0  0  0  0  0  0  0  0
    5.3806    1.5932   -1.0184 H   0  0  0  0  0  0  0  0  0  0  0  0
    5.6964   -0.2941    0.5389 H   0  0  0  0  0  0  0  0  0  0  0  0
    4.7160   -2.0325    1.9387 H   0  0  0  0  0  0  0  0  0  0  0  0
  1  2  2  0
  2  3  1  0
  3  4  1  0
  4  5  1  0
  5  6  2  0
  6  7  1  0
  7  8  2  0
  8  9  1  0
  9 10  2  0
  2 11  1  0
 11 12  2  0
 12 13  1  0
 13 14  2  0
 14 15  1  0
 15 16  2  0
 16 17  1  0
 10  5  1  0
 16 11  1  0
  4 18  1  0
  4 19  1  0
  6 20  1  0
  7 21  1  0
  8 22  1  0
  9 23  1  0
 10 24  1  0
 12 25  1  0
 13 26  1  0
 14 27  1  0
 15 28  1  0
 17 29  1  0
M  END
>  <id>  (41) 
FLO_041

>  <group>  (41) 
Floral

>  <compound_name>  (41) 
Benzyl salicylate

$$$$
FLO_042_Benzyl benzoate
     RDKit          3D

 28 29  0  0  0  0  0  0  0  0999 V2000
    0.9330    1.4281    2.2972 O   0  0  0  0  0  0  0  0  0  0  0  0
    1.0112    0.7915    1.2100 C   0  0  0  0  0  0  0  0  0  0  0  0
   -0.1538    0.3694    0.5608 O   0  0  0  0  0  0  0  0  0  0  0  0
   -1.4571    0.6251    1.0721 C   0  0  0  0  0  0  0  0  0  0  0  0
   -2.4763    0.0410    0.1388 C   0  0  0  0  0  0  0  0  0  0  0  0
   -2.8952   -1.2910    0.2916 C   0  0  0  0  0  0  0  0  0  0  0  0
   -3.8156   -1.8464   -0.6029 C   0  0  0  0  0  0  0  0  0  0  0  0
   -4.3134   -1.0810   -1.6612 C   0  0  0  0  0  0  0  0  0  0  0  0
   -3.8877    0.2396   -1.8296 C   0  0  0  0  0  0  0  0  0  0  0  0
   -2.9674    0.7987   -0.9372 C   0  0  0  0  0  0  0  0  0  0  0  0
    2.3332    0.4894    0.6188 C   0  0  0  0  0  0  0  0  0  0  0  0
    2.4233   -0.2201   -0.5929 C   0  0  0  0  0  0  0  0  0  0  0  0
    3.6719   -0.5067   -1.1536 C   0  0  0  0  0  0  0  0  0  0  0  0
    4.8408   -0.0896   -0.5130 C   0  0  0  0  0  0  0  0  0  0  0  0
    4.7637    0.6154    0.6903 C   0  0  0  0  0  0  0  0  0  0  0  0
    3.5179    0.9049    1.2557 C   0  0  0  0  0  0  0  0  0  0  0  0
   -1.5593    0.1716    2.0825 H   0  0  0  0  0  0  0  0  0  0  0  0
   -1.6128    1.7219    1.1707 H   0  0  0  0  0  0  0  0  0  0  0  0
   -2.5092   -1.8980    1.1013 H   0  0  0  0  0  0  0  0  0  0  0  0
   -4.1399   -2.8714   -0.4781 H   0  0  0  0  0  0  0  0  0  0  0  0
   -5.0246   -1.5127   -2.3536 H   0  0  0  0  0  0  0  0  0  0  0  0
   -4.2678    0.8289   -2.6541 H   0  0  0  0  0  0  0  0  0  0  0  0
   -2.6377    1.8197   -1.0850 H   0  0  0  0  0  0  0  0  0  0  0  0
    1.5311   -0.5538   -1.1079 H   0  0  0  0  0  0  0  0  0  0  0  0
    3.7329   -1.0530   -2.0861 H   0  0  0  0  0  0  0  0  0  0  0  0
    5.8061   -0.3126   -0.9489 H   0  0  0  0  0  0  0  0  0  0  0  0
    5.6703    0.9382    1.1858 H   0  0  0  0  0  0  0  0  0  0  0  0
    3.4827    1.4527    2.1891 H   0  0  0  0  0  0  0  0  0  0  0  0
  1  2  2  0
  2  3  1  0
  3  4  1  0
  4  5  1  0
  5  6  2  0
  6  7  1  0
  7  8  2  0
  8  9  1  0
  9 10  2  0
  2 11  1  0
 11 12  2  0
 12 13  1  0
 13 14  2  0
 14 15  1  0
 15 16  2  0
 10  5  1  0
 16 11  1  0
  4 17  1  0
  4 18  1  0
  6 19  1  0
  7 20  1  0
  8 21  1  0
  9 22  1  0
 10 23  1  0
 12 24  1  0
 13 25  1  0
 14 26  1  0
 15 27  1  0
 16 28  1  0
M  END
>  <id>  (42) 
FLO_042

>  <group>  (42) 
Floral

>  <compound_name>  (42) 
Benzyl benzoate

$$$$
FLO_043_Methyl benzoate
     RDKit          3D

 18 18  0  0  0  0  0  0  0  0999 V2000
    3.5228    0.4676   -0.1592 C   0  0  0  0  0  0  0  0  0  0  0  0
    2.1110    0.6064   -0.0552 O   0  0  0  0  0  0  0  0  0  0  0  0
    1.2368   -0.4832   -0.1358 C   0  0  0  0  0  0  0  0  0  0  0  0
    1.6936   -1.6474   -0.3077 O   0  0  0  0  0  0  0  0  0  0  0  0
   -0.2225   -0.2677   -0.0194 C   0  0  0  0  0  0  0  0  0  0  0  0
   -1.1178   -1.3514   -0.0980 C   0  0  0  0  0  0  0  0  0  0  0  0
   -2.4958   -1.1400    0.0130 C   0  0  0  0  0  0  0  0  0  0  0  0
   -2.9939    0.1509    0.2030 C   0  0  0  0  0  0  0  0  0  0  0  0
   -2.1150    1.2335    0.2825 C   0  0  0  0  0  0  0  0  0  0  0  0
   -0.7361    1.0281    0.1722 C   0  0  0  0  0  0  0  0  0  0  0  0
    3.9014   -0.1876    0.6537 H   0  0  0  0  0  0  0  0  0  0  0  0
    3.9952    1.4669   -0.0650 H   0  0  0  0  0  0  0  0  0  0  0  0
    3.7906    0.0346   -1.1463 H   0  0  0  0  0  0  0  0  0  0  0  0
   -0.7548   -2.3610   -0.2450 H   0  0  0  0  0  0  0  0  0  0  0  0
   -3.1778   -1.9782   -0.0485 H   0  0  0  0  0  0  0  0  0  0  0  0
   -4.0607    0.3123    0.2886 H   0  0  0  0  0  0  0  0  0  0  0  0
   -2.5023    2.2334    0.4298 H   0  0  0  0  0  0  0  0  0  0  0  0
   -0.0746    1.8828    0.2370 H   0  0  0  0  0  0  0  0  0  0  0  0
  1  2  1  0
  2  3  1  0
  3  4  2  0
  3  5  1  0
  5  6  2  0
  6  7  1  0
  7  8  2  0
  8  9  1  0
  9 10  2  0
 10  5  1  0
  1 11  1  0
  1 12  1  0
  1 13  1  0
  6 14  1  0
  7 15  1  0
  8 16  1  0
  9 17  1  0
 10 18  1  0
M  END
>  <id>  (43) 
FLO_043

>  <group>  (43) 
Floral

>  <compound_name>  (43) 
Methyl benzoate

$$$$
FLO_044_Methyl salicylate
     RDKit          3D

 19 19  0  0  0  0  0  0  0  0999 V2000
    3.4877    0.6043   -0.3264 C   0  0  0  0  0  0  0  0  0  0  0  0
    2.0685    0.6874   -0.3754 O   0  0  0  0  0  0  0  0  0  0  0  0
    1.2354   -0.2852    0.1878 C   0  0  0  0  0  0  0  0  0  0  0  0
    1.7358   -1.2708    0.7955 O   0  0  0  0  0  0  0  0  0  0  0  0
   -0.2322   -0.1126    0.1200 C   0  0  0  0  0  0  0  0  0  0  0  0
   -0.7521    1.1942    0.1572 C   0  0  0  0  0  0  0  0  0  0  0  0
   -2.1314    1.4126    0.1683 C   0  0  0  0  0  0  0  0  0  0  0  0
   -3.0106    0.3310    0.1412 C   0  0  0  0  0  0  0  0  0  0  0  0
   -2.5131   -0.9716    0.0830 C   0  0  0  0  0  0  0  0  0  0  0  0
   -1.1327   -1.2075    0.0502 C   0  0  0  0  0  0  0  0  0  0  0  0
   -0.7032   -2.5295   -0.0864 O   0  0  0  0  0  0  0  0  0  0  0  0
    3.8319    0.5979    0.7295 H   0  0  0  0  0  0  0  0  0  0  0  0
    3.9224    1.4857   -0.8408 H   0  0  0  0  0  0  0  0  0  0  0  0
    3.8324   -0.3184   -0.8395 H   0  0  0  0  0  0  0  0  0  0  0  0
   -0.0894    2.0499    0.2051 H   0  0  0  0  0  0  0  0  0  0  0  0
   -2.5187    2.4226    0.2084 H   0  0  0  0  0  0  0  0  0  0  0  0
   -4.0793    0.5020    0.1558 H   0  0  0  0  0  0  0  0  0  0  0  0
   -3.2043   -1.8040    0.0402 H   0  0  0  0  0  0  0  0  0  0  0  0
    0.2529   -2.7878   -0.2875 H   0  0  0  0  0  0  0  0  0  0  0  0
  1  2  1  0
  2  3  1  0
  3  4  2  0
  3  5  1  0
  5  6  2  0
  6  7  1  0
  7  8  2  0
  8  9  1  0
  9 10  2  0
 10 11  1  0
 10  5  1  0
  1 12  1  0
  1 13  1  0
  1 14  1  0
  6 15  1  0
  7 16  1  0
  8 17  1  0
  9 18  1  0
 11 19  1  0
M  END
>  <id>  (44) 
FLO_044

>  <group>  (44) 
Floral

>  <compound_name>  (44) 
Methyl salicylate

$$$$
FLO_045_Ethyl salicylate
     RDKit          3D

 22 22  0  0  0  0  0  0  0  0999 V2000
    3.6123    0.7290   -0.1430 C   0  0  0  0  0  0  0  0  0  0  0  0
    2.9571   -0.1697    0.8992 C   0  0  0  0  0  0  0  0  0  0  0  0
    1.5428    0.0148    0.9052 O   0  0  0  0  0  0  0  0  0  0  0  0
    0.6890   -0.5099   -0.0744 C   0  0  0  0  0  0  0  0  0  0  0  0
    1.1602   -1.2334   -0.9943 O   0  0  0  0  0  0  0  0  0  0  0  0
   -0.7655   -0.2144   -0.0152 C   0  0  0  0  0  0  0  0  0  0  0  0
   -1.2601    0.5973    1.0241 C   0  0  0  0  0  0  0  0  0  0  0  0
   -2.6221    0.8959    1.1095 C   0  0  0  0  0  0  0  0  0  0  0  0
   -3.5106    0.3907    0.1613 C   0  0  0  0  0  0  0  0  0  0  0  0
   -3.0401   -0.4150   -0.8761 C   0  0  0  0  0  0  0  0  0  0  0  0
   -1.6745   -0.7232   -0.9744 C   0  0  0  0  0  0  0  0  0  0  0  0
   -1.2304   -1.5308   -2.0216 O   0  0  0  0  0  0  0  0  0  0  0  0
    4.7156    0.6140   -0.0945 H   0  0  0  0  0  0  0  0  0  0  0  0
    3.2701    0.4540   -1.1624 H   0  0  0  0  0  0  0  0  0  0  0  0
    3.3519    1.7903    0.0547 H   0  0  0  0  0  0  0  0  0  0  0  0
    3.3525    0.0999    1.9011 H   0  0  0  0  0  0  0  0  0  0  0  0
    3.2088   -1.2350    0.7047 H   0  0  0  0  0  0  0  0  0  0  0  0
   -0.5950    1.0046    1.7750 H   0  0  0  0  0  0  0  0  0  0  0  0
   -2.9889    1.5210    1.9135 H   0  0  0  0  0  0  0  0  0  0  0  0
   -4.5653    0.6237    0.2300 H   0  0  0  0  0  0  0  0  0  0  0  0
   -3.7394   -0.8015   -1.6067 H   0  0  0  0  0  0  0  0  0  0  0  0
   -1.8686   -1.9023   -2.7157 H   0  0  0  0  0  0  0  0  0  0  0  0
  1  2  1  0
  2  3  1  0
  3  4  1  0
  4  5  2  0
  4  6  1  0
  6  7  2  0
  7  8  1  0
  8  9  2  0
  9 10  1  0
 10 11  2  0
 11 12  1  0
 11  6  1  0
  1 13  1  0
  1 14  1  0
  1 15  1  0
  2 16  1  0
  2 17  1  0
  7 18  1  0
  8 19  1  0
  9 20  1  0
 10 21  1  0
 12 22  1  0
M  END
>  <id>  (45) 
FLO_045

>  <group>  (45) 
Floral

>  <compound_name>  (45) 
Ethyl salicylate

$$$$
FLO_046_Anisyl alcohol
     RDKit          3D

 20 20  0  0  0  0  0  0  0  0999 V2000
    3.6575   -0.1777   -0.0019 C   0  0  0  0  0  0  0  0  0  0  0  0
    2.6155    0.7598   -0.2531 O   0  0  0  0  0  0  0  0  0  0  0  0
    1.2489    0.4434   -0.2529 C   0  0  0  0  0  0  0  0  0  0  0  0
    0.7745   -0.8575    0.0034 C   0  0  0  0  0  0  0  0  0  0  0  0
   -0.5985   -1.1221   -0.0085 C   0  0  0  0  0  0  0  0  0  0  0  0
   -1.5154   -0.0976   -0.2872 C   0  0  0  0  0  0  0  0  0  0  0  0
   -2.9930   -0.3763   -0.2639 C   0  0  0  0  0  0  0  0  0  0  0  0
   -3.4794   -0.2839    1.0468 O   0  0  0  0  0  0  0  0  0  0  0  0
   -1.0433    1.2013   -0.5274 C   0  0  0  0  0  0  0  0  0  0  0  0
    0.3293    1.4657   -0.5154 C   0  0  0  0  0  0  0  0  0  0  0  0
    3.5482   -0.6060    1.0169 H   0  0  0  0  0  0  0  0  0  0  0  0
    4.6355    0.3416   -0.0659 H   0  0  0  0  0  0  0  0  0  0  0  0
    3.6342   -0.9872   -0.7617 H   0  0  0  0  0  0  0  0  0  0  0  0
    1.4569   -1.6690    0.2160 H   0  0  0  0  0  0  0  0  0  0  0  0
   -0.9470   -2.1263    0.1996 H   0  0  0  0  0  0  0  0  0  0  0  0
   -3.5398    0.3278   -0.9322 H   0  0  0  0  0  0  0  0  0  0  0  0
   -3.1884   -1.4010   -0.6459 H   0  0  0  0  0  0  0  0  0  0  0  0
   -3.5395    0.6842    1.2595 H   0  0  0  0  0  0  0  0  0  0  0  0
   -1.7372    2.0093   -0.7237 H   0  0  0  0  0  0  0  0  0  0  0  0
    0.6809    2.4714   -0.7080 H   0  0  0  0  0  0  0  0  0  0  0  0
  1  2  1  0
  2  3  1  0
  3  4  1  0
  4  5  2  0
  5  6  1  0
  6  7  1  0
  7  8  1  0
  6  9  2  0
  9 10  1  0
 10  3  2  0
  1 11  1  0
  1 12  1  0
  1 13  1  0
  4 14  1  0
  5 15  1  0
  7 16  1  0
  7 17  1  0
  8 18  1  0
  9 19  1  0
 10 20  1  0
M  END
>  <id>  (46) 
FLO_046

>  <group>  (46) 
Floral

>  <compound_name>  (46) 
Anisyl alcohol

$$$$
FLO_047_Anisaldehyde
     RDKit          3D

 18 18  0  0  0  0  0  0  0  0999 V2000
    3.2944    0.0646   -0.0384 C   0  0  0  0  0  0  0  0  0  0  0  0
    2.2130   -0.8604   -0.0874 O   0  0  0  0  0  0  0  0  0  0  0  0
    0.8585   -0.4981   -0.0424 C   0  0  0  0  0  0  0  0  0  0  0  0
    0.4377    0.8417    0.0574 C   0  0  0  0  0  0  0  0  0  0  0  0
   -0.9252    1.1519    0.0989 C   0  0  0  0  0  0  0  0  0  0  0  0
   -1.8882    0.1303    0.0414 C   0  0  0  0  0  0  0  0  0  0  0  0
   -3.3297    0.4377    0.0838 C   0  0  0  0  0  0  0  0  0  0  0  0
   -3.7393    1.6257    0.1729 O   0  0  0  0  0  0  0  0  0  0  0  0
   -1.4664   -1.2036   -0.0581 C   0  0  0  0  0  0  0  0  0  0  0  0
   -0.1037   -1.5126   -0.0995 C   0  0  0  0  0  0  0  0  0  0  0  0
    3.2670    0.6339    0.9147 H   0  0  0  0  0  0  0  0  0  0  0  0
    4.2515   -0.4936   -0.0914 H   0  0  0  0  0  0  0  0  0  0  0  0
    3.2406    0.7610   -0.9017 H   0  0  0  0  0  0  0  0  0  0  0  0
    1.1547    1.6499    0.1036 H   0  0  0  0  0  0  0  0  0  0  0  0
   -1.2245    2.1898    0.1759 H   0  0  0  0  0  0  0  0  0  0  0  0
   -4.0556   -0.3642    0.0382 H   0  0  0  0  0  0  0  0  0  0  0  0
   -2.1916   -2.0070   -0.1038 H   0  0  0  0  0  0  0  0  0  0  0  0
    0.2069   -2.5470   -0.1764 H   0  0  0  0  0  0  0  0  0  0  0  0
  1  2  1  0
  2  3  1  0
  3  4  1  0
  4  5  2  0
  5  6  1  0
  6  7  1  0
  7  8  2  0
  6  9  2  0
  9 10  1  0
 10  3  2  0
  1 11  1  0
  1 12  1  0
  1 13  1  0
  4 14  1  0
  5 15  1  0
  7 16  1  0
  9 17  1  0
 10 18  1  0
M  END
>  <id>  (47) 
FLO_047

>  <group>  (47) 
Floral

>  <compound_name>  (47) 
Anisaldehyde

$$$$
FLO_048_Anisyl acetate
     RDKit          3D

 25 25  0  0  0  0  0  0  0  0999 V2000
    4.4758    0.1390    0.3549 C   0  0  0  0  0  0  0  0  0  0  0  0
    3.4281   -0.8225    0.4282 O   0  0  0  0  0  0  0  0  0  0  0  0
    2.1230   -0.6085   -0.0394 C   0  0  0  0  0  0  0  0  0  0  0  0
    1.1895   -1.6426    0.0972 C   0  0  0  0  0  0  0  0  0  0  0  0
   -0.1237   -1.4784   -0.3525 C   0  0  0  0  0  0  0  0  0  0  0  0
   -0.5214   -0.2739   -0.9508 C   0  0  0  0  0  0  0  0  0  0  0  0
   -1.9420   -0.0990   -1.4144 C   0  0  0  0  0  0  0  0  0  0  0  0
   -2.8296   -0.0661   -0.2987 O   0  0  0  0  0  0  0  0  0  0  0  0
   -2.9152    1.0168    0.5834 C   0  0  0  0  0  0  0  0  0  0  0  0
   -2.2033    2.0442    0.4165 O   0  0  0  0  0  0  0  0  0  0  0  0
   -3.8269    0.9348    1.7599 C   0  0  0  0  0  0  0  0  0  0  0  0
    0.4097    0.7672   -1.0861 C   0  0  0  0  0  0  0  0  0  0  0  0
    1.7232    0.6028   -0.6360 C   0  0  0  0  0  0  0  0  0  0  0  0
    5.3967   -0.2940    0.7962 H   0  0  0  0  0  0  0  0  0  0  0  0
    4.2000    1.0487    0.9291 H   0  0  0  0  0  0  0  0  0  0  0  0
    4.6789    0.4023   -0.7046 H   0  0  0  0  0  0  0  0  0  0  0  0
    1.4835   -2.5780    0.5561 H   0  0  0  0  0  0  0  0  0  0  0  0
   -0.8318   -2.2893   -0.2333 H   0  0  0  0  0  0  0  0  0  0  0  0
   -2.0643    0.8234   -2.0237 H   0  0  0  0  0  0  0  0  0  0  0  0
   -2.2172   -0.9586   -2.0614 H   0  0  0  0  0  0  0  0  0  0  0  0
   -4.2863    1.9266    1.9560 H   0  0  0  0  0  0  0  0  0  0  0  0
   -3.2503    0.6143    2.6523 H   0  0  0  0  0  0  0  0  0  0  0  0
   -4.6341    0.1983    1.5638 H   0  0  0  0  0  0  0  0  0  0  0  0
    0.1198    1.7078   -1.5379 H   0  0  0  0  0  0  0  0  0  0  0  0
    2.4182    1.4228   -0.7548 H   0  0  0  0  0  0  0  0  0  0  0  0
  1  2  1  0
  2  3  1  0
  3  4  1  0
  4  5  2  0
  5  6  1  0
  6  7  1  0
  7  8  1  0
  8  9  1  0
  9 10  2  0
  9 11  1  0
  6 12  2  0
 12 13  1  0
 13  3  2  0
  1 14  1  0
  1 15  1  0
  1 16  1  0
  4 17  1  0
  5 18  1  0
  7 19  1  0
  7 20  1  0
 11 21  1  0
 11 22  1  0
 11 23  1  0
 12 24  1  0
 13 25  1  0
M  END
>  <id>  (48) 
FLO_048

>  <group>  (48) 
Floral

>  <compound_name>  (48) 
Anisyl acetate

$$$$
FLO_049_Piperonal
     RDKit          3D

 17 18  0  0  0  0  0  0  0  0999 V2000
    3.9589   -0.2992    0.3111 O   0  0  0  0  0  0  0  0  0  0  0  0
    3.0190    0.5396    0.3227 C   0  0  0  0  0  0  0  0  0  0  0  0
    1.6180    0.1144    0.1552 C   0  0  0  0  0  0  0  0  0  0  0  0
    1.2850   -1.2550   -0.0246 C   0  0  0  0  0  0  0  0  0  0  0  0
   -0.0564   -1.6489   -0.1835 C   0  0  0  0  0  0  0  0  0  0  0  0
   -1.0321   -0.6578   -0.1581 C   0  0  0  0  0  0  0  0  0  0  0  0
   -2.4005   -0.7936   -0.2908 O   0  0  0  0  0  0  0  0  0  0  0  0
   -2.9862    0.5126   -0.1971 C   0  0  0  0  0  0  0  0  0  0  0  0
   -1.8798    1.4049   -0.0034 O   0  0  0  0  0  0  0  0  0  0  0  0
   -0.7218    0.6516    0.0131 C   0  0  0  0  0  0  0  0  0  0  0  0
    0.5915    1.0845    0.1739 C   0  0  0  0  0  0  0  0  0  0  0  0
    3.2537    1.5877    0.4586 H   0  0  0  0  0  0  0  0  0  0  0  0
    2.0580   -2.0129   -0.0417 H   0  0  0  0  0  0  0  0  0  0  0  0
   -0.3215   -2.6889   -0.3210 H   0  0  0  0  0  0  0  0  0  0  0  0
   -3.6750    0.5621    0.6722 H   0  0  0  0  0  0  0  0  0  0  0  0
   -3.5191    0.7619   -1.1386 H   0  0  0  0  0  0  0  0  0  0  0  0
    0.8080    2.1369    0.3086 H   0  0  0  0  0  0  0  0  0  0  0  0
  1  2  2  0
  2  3  1  0
  3  4  1  0
  4  5  2  0
  5  6  1  0
  6  7  1  0
  7  8  1  0
  8  9  1  0
  9 10  1  0
 10 11  1  0
 11  3  2  0
 10  6  2  0
  2 12  1  0
  4 13  1  0
  5 14  1  0
  8 15  1  0
  8 16  1  0
 11 17  1  0
M  END
>  <id>  (49) 
FLO_049

>  <group>  (49) 
Floral

>  <compound_name>  (49) 
Piperonal

$$$$
FLO_050_Vanillin
     RDKit          3D

 19 19  0  0  0  0  0  0  0  0999 V2000
   -1.9415   -1.3465    1.7890 C   0  0  0  0  0  0  0  0  0  0  0  0
   -1.6952   -0.0463    1.2634 O   0  0  0  0  0  0  0  0  0  0  0  0
   -0.6379    0.2768    0.3976 C   0  0  0  0  0  0  0  0  0  0  0  0
    0.2944   -0.6884   -0.0352 C   0  0  0  0  0  0  0  0  0  0  0  0
    1.3420   -0.3326   -0.9025 C   0  0  0  0  0  0  0  0  0  0  0  0
    2.3243   -1.3318   -1.3633 C   0  0  0  0  0  0  0  0  0  0  0  0
    2.2534   -2.5338   -0.9930 O   0  0  0  0  0  0  0  0  0  0  0  0
    1.4538    0.9952   -1.3362 C   0  0  0  0  0  0  0  0  0  0  0  0
    0.5341    1.9554   -0.9113 C   0  0  0  0  0  0  0  0  0  0  0  0
   -0.5088    1.6049   -0.0489 C   0  0  0  0  0  0  0  0  0  0  0  0
   -1.4087    2.5914    0.3543 O   0  0  0  0  0  0  0  0  0  0  0  0
   -2.1328   -2.0629    0.9623 H   0  0  0  0  0  0  0  0  0  0  0  0
   -2.8381   -1.3097    2.4410 H   0  0  0  0  0  0  0  0  0  0  0  0
   -1.0747   -1.6837    2.3959 H   0  0  0  0  0  0  0  0  0  0  0  0
    0.2090   -1.7135    0.2989 H   0  0  0  0  0  0  0  0  0  0  0  0
    3.1236   -1.0366   -2.0312 H   0  0  0  0  0  0  0  0  0  0  0  0
    2.2538    1.2898   -2.0045 H   0  0  0  0  0  0  0  0  0  0  0  0
    0.6317    2.9779   -1.2538 H   0  0  0  0  0  0  0  0  0  0  0  0
   -2.1825    2.3945    0.9775 H   0  0  0  0  0  0  0  0  0  0  0  0
  1  2  1  0
  2  3  1  0
  3  4  1  0
  4  5  2  0
  5  6  1  0
  6  7  2  0
  5  8  1  0
  8  9  2  0
  9 10  1  0
 10 11  1  0
 10  3  2  0
  1 12  1  0
  1 13  1  0
  1 14  1  0
  4 15  1  0
  6 16  1  0
  8 17  1  0
  9 18  1  0
 11 19  1  0
M  END
>  <id>  (50) 
FLO_050

>  <group>  (50) 
Floral

>  <compound_name>  (50) 
Vanillin

$$$$
FLO_051_Coumarin
     RDKit          3D

 17 18  0  0  0  0  0  0  0  0999 V2000
    3.2420   -1.9903    0.0042 O   0  0  0  0  0  0  0  0  0  0  0  0
    2.2806   -1.1779    0.0162 C   0  0  0  0  0  0  0  0  0  0  0  0
    1.0326   -1.6338   -0.0583 O   0  0  0  0  0  0  0  0  0  0  0  0
   -0.0256   -0.8267   -0.0502 C   0  0  0  0  0  0  0  0  0  0  0  0
   -1.3157   -1.3624   -0.1310 C   0  0  0  0  0  0  0  0  0  0  0  0
   -2.4281   -0.5144   -0.1226 C   0  0  0  0  0  0  0  0  0  0  0  0
   -2.2563    0.8713   -0.0335 C   0  0  0  0  0  0  0  0  0  0  0  0
   -0.9712    1.4176    0.0477 C   0  0  0  0  0  0  0  0  0  0  0  0
    0.1483    0.5728    0.0398 C   0  0  0  0  0  0  0  0  0  0  0  0
    1.4492    1.0790    0.1192 C   0  0  0  0  0  0  0  0  0  0  0  0
    2.5287    0.1962    0.1075 C   0  0  0  0  0  0  0  0  0  0  0  0
   -1.4567   -2.4337   -0.2002 H   0  0  0  0  0  0  0  0  0  0  0  0
   -3.4249   -0.9314   -0.1852 H   0  0  0  0  0  0  0  0  0  0  0  0
   -3.1208    1.5226   -0.0275 H   0  0  0  0  0  0  0  0  0  0  0  0
   -0.8527    2.4923    0.1162 H   0  0  0  0  0  0  0  0  0  0  0  0
    1.6287    2.1451    0.1896 H   0  0  0  0  0  0  0  0  0  0  0  0
    3.5420    0.5738    0.1684 H   0  0  0  0  0  0  0  0  0  0  0  0
  1  2  2  0
  2  3  1  0
  3  4  1  0
  4  5  2  0
  5  6  1  0
  6  7  2  0
  7  8  1  0
  8  9  2  0
  9 10  1  0
 10 11  2  0
 11  2  1  0
  9  4  1  0
  5 12  1  0
  6 13  1  0
  7 14  1  0
  8 15  1  0
 10 16  1  0
 11 17  1  0
M  END
>  <id>  (51) 
FLO_051

>  <group>  (51) 
Floral

>  <compound_name>  (51) 
Coumarin

$$$$
FLO_052_Cinnamyl alcohol
     RDKit          3D

 20 20  0  0  0  0  0  0  0  0999 V2000
    3.8438   -0.0940    0.8579 O   0  0  0  0  0  0  0  0  0  0  0  0
    3.2295   -0.7142   -0.2393 C   0  0  0  0  0  0  0  0  0  0  0  0
    1.7499   -0.8175   -0.0182 C   0  0  0  0  0  0  0  0  0  0  0  0
    0.9728    0.2730   -0.0108 C   0  0  0  0  0  0  0  0  0  0  0  0
   -0.4981    0.2401    0.1801 C   0  0  0  0  0  0  0  0  0  0  0  0
   -1.2543    1.3528   -0.2282 C   0  0  0  0  0  0  0  0  0  0  0  0
   -2.6422    1.3699   -0.0596 C   0  0  0  0  0  0  0  0  0  0  0  0
   -3.2898    0.2812    0.5273 C   0  0  0  0  0  0  0  0  0  0  0  0
   -2.5501   -0.8243    0.9522 C   0  0  0  0  0  0  0  0  0  0  0  0
   -1.1616   -0.8476    0.7856 C   0  0  0  0  0  0  0  0  0  0  0  0
    3.7667    0.8854    0.7149 H   0  0  0  0  0  0  0  0  0  0  0  0
    3.4429   -0.1627   -1.1838 H   0  0  0  0  0  0  0  0  0  0  0  0
    3.6498   -1.7363   -0.3454 H   0  0  0  0  0  0  0  0  0  0  0  0
    1.3263   -1.8065    0.0895 H   0  0  0  0  0  0  0  0  0  0  0  0
    1.4348    1.2366   -0.1958 H   0  0  0  0  0  0  0  0  0  0  0  0
   -0.7706    2.2073   -0.6859 H   0  0  0  0  0  0  0  0  0  0  0  0
   -3.2155    2.2289   -0.3836 H   0  0  0  0  0  0  0  0  0  0  0  0
   -4.3641    0.2967    0.6587 H   0  0  0  0  0  0  0  0  0  0  0  0
   -3.0524   -1.6622    1.4183 H   0  0  0  0  0  0  0  0  0  0  0  0
   -0.6178   -1.7063    1.1532 H   0  0  0  0  0  0  0  0  0  0  0  0
  1  2  1  0
  2  3  1  0
  3  4  2  3
  4  5  1  0
  5  6  2  0
  6  7  1  0
  7  8  2  0
  8  9  1  0
  9 10  2  0
 10  5  1  0
  1 11  1  0
  2 12  1  0
  2 13  1  0
  3 14  1  0
  4 15  1  0
  6 16  1  0
  7 17  1  0
  8 18  1  0
  9 19  1  0
 10 20  1  0
M  END
>  <id>  (52) 
FLO_052

>  <group>  (52) 
Floral

>  <compound_name>  (52) 
Cinnamyl alcohol

$$$$
FLO_053_Cinnamyl formate
     RDKit          3D

 22 22  0  0  0  0  0  0  0  0999 V2000
    5.3397   -0.0702   -0.5511 O   0  0  0  0  0  0  0  0  0  0  0  0
    4.4821    0.8398   -0.7079 C   0  0  0  0  0  0  0  0  0  0  0  0
    3.1151    0.5582   -0.6578 O   0  0  0  0  0  0  0  0  0  0  0  0
    2.6104   -0.7539   -0.4300 C   0  0  0  0  0  0  0  0  0  0  0  0
    1.1140   -0.7260   -0.4288 C   0  0  0  0  0  0  0  0  0  0  0  0
    0.4386   -0.0542    0.5121 C   0  0  0  0  0  0  0  0  0  0  0  0
   -1.0418    0.0285    0.5708 C   0  0  0  0  0  0  0  0  0  0  0  0
   -1.8819   -0.9021   -0.0759 C   0  0  0  0  0  0  0  0  0  0  0  0
   -3.2723   -0.7845    0.0198 C   0  0  0  0  0  0  0  0  0  0  0  0
   -3.8399    0.2517    0.7640 C   0  0  0  0  0  0  0  0  0  0  0  0
   -3.0182    1.1700    1.4204 C   0  0  0  0  0  0  0  0  0  0  0  0
   -1.6276    1.0573    1.3291 C   0  0  0  0  0  0  0  0  0  0  0  0
    4.8089    1.8553   -0.8839 H   0  0  0  0  0  0  0  0  0  0  0  0
    2.9778   -1.1403    0.5458 H   0  0  0  0  0  0  0  0  0  0  0  0
    2.9621   -1.4311   -1.2383 H   0  0  0  0  0  0  0  0  0  0  0  0
    0.6002   -1.2485   -1.2236 H   0  0  0  0  0  0  0  0  0  0  0  0
    1.0039    0.4967    1.2562 H   0  0  0  0  0  0  0  0  0  0  0  0
   -1.4779   -1.7334   -0.6360 H   0  0  0  0  0  0  0  0  0  0  0  0
   -3.9108   -1.5026   -0.4785 H   0  0  0  0  0  0  0  0  0  0  0  0
   -4.9162    0.3394    0.8371 H   0  0  0  0  0  0  0  0  0  0  0  0
   -3.4587    1.9698    2.0017 H   0  0  0  0  0  0  0  0  0  0  0  0
   -1.0075    1.7801    1.8456 H   0  0  0  0  0  0  0  0  0  0  0  0
  1  2  2  0
  2  3  1  0
  3  4  1  0
  4  5  1  0
  5  6  2  3
  6  7  1  0
  7  8  2  0
  8  9  1  0
  9 10  2  0
 10 11  1  0
 11 12  2  0
 12  7  1  0
  2 13  1  0
  4 14  1  0
  4 15  1  0
  5 16  1  0
  6 17  1  0
  8 18  1  0
  9 19  1  0
 10 20  1  0
 11 21  1  0
 12 22  1  0
M  END
>  <id>  (53) 
FLO_053

>  <group>  (53) 
Floral

>  <compound_name>  (53) 
Cinnamyl formate

$$$$
FLO_054_Phenylacetaldehyde
     RDKit          3D

 17 17  0  0  0  0  0  0  0  0999 V2000
    2.6022    0.1230   -1.5125 O   0  0  0  0  0  0  0  0  0  0  0  0
    2.5785    0.4339   -0.3321 C   0  0  0  0  0  0  0  0  0  0  0  0
    1.7690   -0.3607    0.6463 C   0  0  0  0  0  0  0  0  0  0  0  0
    0.2995   -0.2026    0.3653 C   0  0  0  0  0  0  0  0  0  0  0  0
   -0.3671   -1.1177   -0.4671 C   0  0  0  0  0  0  0  0  0  0  0  0
   -1.7267   -0.9516   -0.7495 C   0  0  0  0  0  0  0  0  0  0  0  0
   -2.4269    0.1316   -0.2114 C   0  0  0  0  0  0  0  0  0  0  0  0
   -1.7680    1.0530    0.6073 C   0  0  0  0  0  0  0  0  0  0  0  0
   -0.4085    0.8909    0.8923 C   0  0  0  0  0  0  0  0  0  0  0  0
    3.1546    1.2881    0.0086 H   0  0  0  0  0  0  0  0  0  0  0  0
    2.0668   -1.4303    0.5905 H   0  0  0  0  0  0  0  0  0  0  0  0
    1.9941   -0.0096    1.6766 H   0  0  0  0  0  0  0  0  0  0  0  0
    0.1656   -1.9569   -0.8971 H   0  0  0  0  0  0  0  0  0  0  0  0
   -2.2367   -1.6612   -1.3882 H   0  0  0  0  0  0  0  0  0  0  0  0
   -3.4789    0.2592   -0.4319 H   0  0  0  0  0  0  0  0  0  0  0  0
   -2.3100    1.8947    1.0187 H   0  0  0  0  0  0  0  0  0  0  0  0
    0.0925    1.6162    1.5215 H   0  0  0  0  0  0  0  0  0  0  0  0
  1  2  2  0
  2  3  1  0
  3  4  1  0
  4  5  2  0
  5  6  1  0
  6  7  2  0
  7  8  1  0
  8  9  2  0
  9  4  1  0
  2 10  1  0
  3 11  1  0
  3 12  1  0
  5 13  1  0
  6 14  1  0
  7 15  1  0
  8 16  1  0
  9 17  1  0
M  END
>  <id>  (54) 
FLO_054

>  <group>  (54) 
Floral

>  <compound_name>  (54) 
Phenylacetaldehyde

$$$$
FLO_055_Methyl phenylacetate
     RDKit          3D

 21 21  0  0  0  0  0  0  0  0999 V2000
    3.3906   -1.0939   -0.7946 C   0  0  0  0  0  0  0  0  0  0  0  0
    2.4293   -0.2922   -0.1194 O   0  0  0  0  0  0  0  0  0  0  0  0
    1.6661    0.6788   -0.7741 C   0  0  0  0  0  0  0  0  0  0  0  0
    1.7973    0.8738   -2.0135 O   0  0  0  0  0  0  0  0  0  0  0  0
    0.6501    1.4579   -0.0031 C   0  0  0  0  0  0  0  0  0  0  0  0
   -0.6467    0.6994    0.0516 C   0  0  0  0  0  0  0  0  0  0  0  0
   -1.6136    0.8746   -0.9529 C   0  0  0  0  0  0  0  0  0  0  0  0
   -2.8057    0.1443   -0.9178 C   0  0  0  0  0  0  0  0  0  0  0  0
   -3.0364   -0.7712    0.1128 C   0  0  0  0  0  0  0  0  0  0  0  0
   -2.0737   -0.9609    1.1081 C   0  0  0  0  0  0  0  0  0  0  0  0
   -0.8803   -0.2326    1.0770 C   0  0  0  0  0  0  0  0  0  0  0  0
    2.8961   -1.6914   -1.5896 H   0  0  0  0  0  0  0  0  0  0  0  0
    3.8642   -1.7850   -0.0676 H   0  0  0  0  0  0  0  0  0  0  0  0
    4.1760   -0.4491   -1.2429 H   0  0  0  0  0  0  0  0  0  0  0  0
    1.0308    1.6426    1.0248 H   0  0  0  0  0  0  0  0  0  0  0  0
    0.4967    2.4519   -0.4775 H   0  0  0  0  0  0  0  0  0  0  0  0
   -1.4433    1.5743   -1.7619 H   0  0  0  0  0  0  0  0  0  0  0  0
   -3.5492    0.2856   -1.6916 H   0  0  0  0  0  0  0  0  0  0  0  0
   -3.9590   -1.3366    0.1377 H   0  0  0  0  0  0  0  0  0  0  0  0
   -2.2508   -1.6748    1.9020 H   0  0  0  0  0  0  0  0  0  0  0  0
   -0.1386   -0.3956    1.8491 H   0  0  0  0  0  0  0  0  0  0  0  0
  1  2  1  0
  2  3  1  0
  3  4  2  0
  3  5  1  0
  5  6  1  0
  6  7  2  0
  7  8  1  0
  8  9  2  0
  9 10  1  0
 10 11  2  0
 11  6  1  0
  1 12  1  0
  1 13  1  0
  1 14  1  0
  5 15  1  0
  5 16  1  0
  7 17  1  0
  8 18  1  0
  9 19  1  0
 10 20  1  0
 11 21  1  0
M  END
>  <id>  (55) 
FLO_055

>  <group>  (55) 
Floral

>  <compound_name>  (55) 
Methyl phenylacetate

$$$$
FLO_056_Ethyl phenylacetate
     RDKit          3D

 24 24  0  0  0  0  0  0  0  0999 V2000
    2.8312   -1.1021   -0.8156 C   0  0  0  0  0  0  0  0  0  0  0  0
    3.1414    0.2677   -0.2232 C   0  0  0  0  0  0  0  0  0  0  0  0
    1.9667    0.8474    0.3398 O   0  0  0  0  0  0  0  0  0  0  0  0
    0.9421    1.4107   -0.4290 C   0  0  0  0  0  0  0  0  0  0  0  0
    1.0480    1.4981   -1.6829 O   0  0  0  0  0  0  0  0  0  0  0  0
   -0.3110    1.8682    0.2437 C   0  0  0  0  0  0  0  0  0  0  0  0
   -1.2477    0.7061    0.4219 C   0  0  0  0  0  0  0  0  0  0  0  0
   -1.1521   -0.1131    1.5596 C   0  0  0  0  0  0  0  0  0  0  0  0
   -1.9988   -1.2163    1.7062 C   0  0  0  0  0  0  0  0  0  0  0  0
   -2.9387   -1.5145    0.7157 C   0  0  0  0  0  0  0  0  0  0  0  0
   -3.0306   -0.7124   -0.4252 C   0  0  0  0  0  0  0  0  0  0  0  0
   -2.1856    0.3916   -0.5760 C   0  0  0  0  0  0  0  0  0  0  0  0
    2.3957   -1.7620   -0.0357 H   0  0  0  0  0  0  0  0  0  0  0  0
    3.7657   -1.5640   -1.1979 H   0  0  0  0  0  0  0  0  0  0  0  0
    2.1111   -1.0071   -1.6549 H   0  0  0  0  0  0  0  0  0  0  0  0
    3.5707    0.9370   -1.0001 H   0  0  0  0  0  0  0  0  0  0  0  0
    3.8960    0.1454    0.5821 H   0  0  0  0  0  0  0  0  0  0  0  0
   -0.7950    2.6673   -0.3596 H   0  0  0  0  0  0  0  0  0  0  0  0
   -0.0576    2.3120    1.2308 H   0  0  0  0  0  0  0  0  0  0  0  0
   -0.4210    0.1012    2.3295 H   0  0  0  0  0  0  0  0  0  0  0  0
   -1.9237   -1.8422    2.5859 H   0  0  0  0  0  0  0  0  0  0  0  0
   -3.5924   -2.3695    0.8301 H   0  0  0  0  0  0  0  0  0  0  0  0
   -3.7542   -0.9484   -1.1947 H   0  0  0  0  0  0  0  0  0  0  0  0
   -2.2601    0.9990   -1.4696 H   0  0  0  0  0  0  0  0  0  0  0  0
  1  2  1  0
  2  3  1  0
  3  4  1  0
  4  5  2  0
  4  6  1  0
  6  7  1  0
  7  8  2  0
  8  9  1  0
  9 10  2  0
 10 11  1  0
 11 12  2  0
 12  7  1  0
  1 13  1  0
  1 14  1  0
  1 15  1  0
  2 16  1  0
  2 17  1  0
  6 18  1  0
  6 19  1  0
  8 20  1  0
  9 21  1  0
 10 22  1  0
 11 23  1  0
 12 24  1  0
M  END
>  <id>  (56) 
FLO_056

>  <group>  (56) 
Floral

>  <compound_name>  (56) 
Ethyl phenylacetate

$$$$
FLO_057_Benzyl propionate
     RDKit          3D

 24 24  0  0  0  0  0  0  0  0999 V2000
    3.7757   -0.5961    0.9239 C   0  0  0  0  0  0  0  0  0  0  0  0
    3.2249    0.8090    0.7122 C   0  0  0  0  0  0  0  0  0  0  0  0
    2.2151    0.8162   -0.3905 C   0  0  0  0  0  0  0  0  0  0  0  0
    2.5768    1.0763   -1.5706 O   0  0  0  0  0  0  0  0  0  0  0  0
    0.8861    0.4900   -0.1067 O   0  0  0  0  0  0  0  0  0  0  0  0
   -0.1247    0.4476   -1.1077 C   0  0  0  0  0  0  0  0  0  0  0  0
   -1.4294    0.0599   -0.4764 C   0  0  0  0  0  0  0  0  0  0  0  0
   -1.7714   -1.2951   -0.3339 C   0  0  0  0  0  0  0  0  0  0  0  0
   -2.9704   -1.6566    0.2887 C   0  0  0  0  0  0  0  0  0  0  0  0
   -3.8283   -0.6702    0.7832 C   0  0  0  0  0  0  0  0  0  0  0  0
   -3.4862    0.6794    0.6603 C   0  0  0  0  0  0  0  0  0  0  0  0
   -2.2881    1.0452    0.0384 C   0  0  0  0  0  0  0  0  0  0  0  0
    4.5200   -0.5832    1.7478 H   0  0  0  0  0  0  0  0  0  0  0  0
    2.9558   -1.2950    1.1963 H   0  0  0  0  0  0  0  0  0  0  0  0
    4.2746   -0.9581   -0.0006 H   0  0  0  0  0  0  0  0  0  0  0  0
    4.0592    1.5008    0.4655 H   0  0  0  0  0  0  0  0  0  0  0  0
    2.7469    1.1630    1.6506 H   0  0  0  0  0  0  0  0  0  0  0  0
   -0.2145    1.4446   -1.5923 H   0  0  0  0  0  0  0  0  0  0  0  0
    0.1542   -0.2909   -1.8912 H   0  0  0  0  0  0  0  0  0  0  0  0
   -1.1107   -2.0695   -0.7037 H   0  0  0  0  0  0  0  0  0  0  0  0
   -3.2325   -2.7017    0.3914 H   0  0  0  0  0  0  0  0  0  0  0  0
   -4.7551   -0.9517    1.2661 H   0  0  0  0  0  0  0  0  0  0  0  0
   -4.1476    1.4422    1.0505 H   0  0  0  0  0  0  0  0  0  0  0  0
   -2.0302    2.0940   -0.0414 H   0  0  0  0  0  0  0  0  0  0  0  0
  1  2  1  0
  2  3  1  0
  3  4  2  0
  3  5  1  0
  5  6  1  0
  6  7  1  0
  7  8  2  0
  8  9  1  0
  9 10  2  0
 10 11  1  0
 11 12  2  0
 12  7  1  0
  1 13  1  0
  1 14  1  0
  1 15  1  0
  2 16  1  0
  2 17  1  0
  6 18  1  0
  6 19  1  0
  8 20  1  0
  9 21  1  0
 10 22  1  0
 11 23  1  0
 12 24  1  0
M  END
>  <id>  (57) 
FLO_057

>  <group>  (57) 
Floral

>  <compound_name>  (57) 
Benzyl propionate

$$$$
FLO_058_Phenethyl propionate
     RDKit          3D

 27 27  0  0  0  0  0  0  0  0999 V2000
   -4.8086   -0.0178    0.0898 C   0  0  0  0  0  0  0  0  0  0  0  0
   -4.0340    0.1440   -1.2126 C   0  0  0  0  0  0  0  0  0  0  0  0
   -2.6701    0.6965   -0.9471 C   0  0  0  0  0  0  0  0  0  0  0  0
   -2.4808    1.9431   -0.9818 O   0  0  0  0  0  0  0  0  0  0  0  0
   -1.6278   -0.1749   -0.6191 O   0  0  0  0  0  0  0  0  0  0  0  0
   -0.3107    0.2800   -0.3271 C   0  0  0  0  0  0  0  0  0  0  0  0
    0.5812   -0.9170   -0.0088 C   0  0  0  0  0  0  0  0  0  0  0  0
    1.9827   -0.4676    0.3063 C   0  0  0  0  0  0  0  0  0  0  0  0
    2.3415   -0.1359    1.6237 C   0  0  0  0  0  0  0  0  0  0  0  0
    3.6351    0.3120    1.9096 C   0  0  0  0  0  0  0  0  0  0  0  0
    4.5748    0.4407    0.8831 C   0  0  0  0  0  0  0  0  0  0  0  0
    4.2214    0.1256   -0.4319 C   0  0  0  0  0  0  0  0  0  0  0  0
    2.9289   -0.3226   -0.7222 C   0  0  0  0  0  0  0  0  0  0  0  0
   -4.2759   -0.7152    0.7715 H   0  0  0  0  0  0  0  0  0  0  0  0
   -5.8159   -0.4321   -0.1261 H   0  0  0  0  0  0  0  0  0  0  0  0
   -4.9289    0.9661    0.5919 H   0  0  0  0  0  0  0  0  0  0  0  0
   -4.5910    0.8239   -1.8931 H   0  0  0  0  0  0  0  0  0  0  0  0
   -3.9399   -0.8444   -1.7111 H   0  0  0  0  0  0  0  0  0  0  0  0
   -0.3417    0.9667    0.5476 H   0  0  0  0  0  0  0  0  0  0  0  0
    0.0957    0.8267   -1.2065 H   0  0  0  0  0  0  0  0  0  0  0  0
    0.5909   -1.6116   -0.8772 H   0  0  0  0  0  0  0  0  0  0  0  0
    0.1572   -1.4740    0.8554 H   0  0  0  0  0  0  0  0  0  0  0  0
    1.6201   -0.2227    2.4268 H   0  0  0  0  0  0  0  0  0  0  0  0
    3.9080    0.5625    2.9266 H   0  0  0  0  0  0  0  0  0  0  0  0
    5.5752    0.7887    1.1059 H   0  0  0  0  0  0  0  0  0  0  0  0
    4.9480    0.2319   -1.2270 H   0  0  0  0  0  0  0  0  0  0  0  0
    2.6650   -0.5548   -1.7466 H   0  0  0  0  0  0  0  0  0  0  0  0
  1  2  1  0
  2  3  1  0
  3  4  2  0
  3  5  1  0
  5  6  1  0
  6  7  1  0
  7  8  1  0
  8  9  2  0
  9 10  1  0
 10 11  2  0
 11 12  1  0
 12 13  2  0
 13  8  1  0
  1 14  1  0
  1 15  1  0
  1 16  1  0
  2 17  1  0
  2 18  1  0
  6 19  1  0
  6 20  1  0
  7 21  1  0
  7 22  1  0
  9 23  1  0
 10 24  1  0
 11 25  1  0
 12 26  1  0
 13 27  1  0
M  END
>  <id>  (58) 
FLO_058

>  <group>  (58) 
Floral

>  <compound_name>  (58) 
Phenethyl propionate

$$$$
FLO_059_Indole
     RDKit          3D

 16 17  0  0  0  0  0  0  0  0999 V2000
    2.1349   -0.5205    0.0603 C   0  0  0  0  0  0  0  0  0  0  0  0
    1.9870    0.8687    0.2730 C   0  0  0  0  0  0  0  0  0  0  0  0
    0.7083    1.4565    0.2811 C   0  0  0  0  0  0  0  0  0  0  0  0
   -0.3911    0.6244    0.0737 C   0  0  0  0  0  0  0  0  0  0  0  0
   -1.6871    0.9749    0.0426 N   0  0  0  0  0  0  0  0  0  0  0  0
   -2.3736   -0.1682   -0.1868 C   0  0  0  0  0  0  0  0  0  0  0  0
   -1.5071   -1.2510   -0.3019 C   0  0  0  0  0  0  0  0  0  0  0  0
   -0.2462   -0.7221   -0.1323 C   0  0  0  0  0  0  0  0  0  0  0  0
    1.0054   -1.3342   -0.1461 C   0  0  0  0  0  0  0  0  0  0  0  0
    3.1230   -0.9618    0.0562 H   0  0  0  0  0  0  0  0  0  0  0  0
    2.8625    1.4849    0.4307 H   0  0  0  0  0  0  0  0  0  0  0  0
    0.5840    2.5194    0.4431 H   0  0  0  0  0  0  0  0  0  0  0  0
   -2.0869    1.9313    0.1690 H   0  0  0  0  0  0  0  0  0  0  0  0
   -3.4514   -0.2183   -0.2674 H   0  0  0  0  0  0  0  0  0  0  0  0
   -1.7692   -2.2846   -0.4852 H   0  0  0  0  0  0  0  0  0  0  0  0
    1.1074   -2.3993   -0.3099 H   0  0  0  0  0  0  0  0  0  0  0  0
  1  2  2  0
  2  3  1  0
  3  4  2  0
  4  5  1  0
  5  6  1  0
  6  7  2  0
  7  8  1  0
  8  9  2  0
  9  1  1  0
  8  4  1  0
  1 10  1  0
  2 11  1  0
  3 12  1  0
  5 13  1  0
  6 14  1  0
  7 15  1  0
  9 16  1  0
M  END
>  <id>  (59) 
FLO_059

>  <group>  (59) 
Floral

>  <compound_name>  (59) 
Indole

$$$$
FLO_060_Hydroxycitronellal
     RDKit          3D

 32 31  0  0  0  0  0  0  0  0999 V2000
   -3.9072   -0.2537   -0.5798 C   0  0  0  0  0  0  0  0  0  0  0  0
   -2.4821    0.1368   -0.1376 C   0  0  0  0  0  0  0  0  0  0  0  0
   -2.4389    0.2380    1.4025 C   0  0  0  0  0  0  0  0  0  0  0  0
   -2.1536    1.3785   -0.7142 O   0  0  0  0  0  0  0  0  0  0  0  0
   -1.4927   -0.9424   -0.6619 C   0  0  0  0  0  0  0  0  0  0  0  0
   -0.0332   -0.8378   -0.1699 C   0  0  0  0  0  0  0  0  0  0  0  0
    0.6794    0.4495   -0.6292 C   0  0  0  0  0  0  0  0  0  0  0  0
    2.2071    0.4565   -0.3755 C   0  0  0  0  0  0  0  0  0  0  0  0
    2.9351   -0.5796   -1.2505 C   0  0  0  0  0  0  0  0  0  0  0  0
    2.5384    0.2862    1.1254 C   0  0  0  0  0  0  0  0  0  0  0  0
    3.9444    0.7030    1.4495 C   0  0  0  0  0  0  0  0  0  0  0  0
    4.8900   -0.0063    1.1456 O   0  0  0  0  0  0  0  0  0  0  0  0
   -3.9623   -0.3221   -1.6876 H   0  0  0  0  0  0  0  0  0  0  0  0
   -4.1996   -1.2353   -0.1479 H   0  0  0  0  0  0  0  0  0  0  0  0
   -4.6446    0.5072   -0.2450 H   0  0  0  0  0  0  0  0  0  0  0  0
   -1.4796    0.6821    1.7410 H   0  0  0  0  0  0  0  0  0  0  0  0
   -2.5583   -0.7655    1.8647 H   0  0  0  0  0  0  0  0  0  0  0  0
   -3.2553    0.8941    1.7739 H   0  0  0  0  0  0  0  0  0  0  0  0
   -2.7804    2.0610   -0.3558 H   0  0  0  0  0  0  0  0  0  0  0  0
   -1.4931   -0.9269   -1.7745 H   0  0  0  0  0  0  0  0  0  0  0  0
   -1.8652   -1.9469   -0.3604 H   0  0  0  0  0  0  0  0  0  0  0  0
    0.5050   -1.7183   -0.5774 H   0  0  0  0  0  0  0  0  0  0  0  0
    0.0025   -0.9260    0.9356 H   0  0  0  0  0  0  0  0  0  0  0  0
    0.4932    0.6092   -1.7141 H   0  0  0  0  0  0  0  0  0  0  0  0
    0.2441    1.3171   -0.0900 H   0  0  0  0  0  0  0  0  0  0  0  0
    2.5668    1.4617   -0.6928 H   0  0  0  0  0  0  0  0  0  0  0  0
    4.0231   -0.3629   -1.2764 H   0  0  0  0  0  0  0  0  0  0  0  0
    2.7934   -1.6089   -0.8601 H   0  0  0  0  0  0  0  0  0  0  0  0
    2.5633   -0.5359   -2.2962 H   0  0  0  0  0  0  0  0  0  0  0  0
    2.3842   -0.7663    1.4480 H   0  0  0  0  0  0  0  0  0  0  0  0
    1.8532    0.9241    1.7252 H   0  0  0  0  0  0  0  0  0  0  0  0
    4.1228    1.6296    1.9854 H   0  0  0  0  0  0  0  0  0  0  0  0
  1  2  1  0
  2  3  1  0
  2  4  1  0
  2  5  1  0
  5  6  1  0
  6  7  1  0
  7  8  1  0
  8  9  1  0
  8 10  1  0
 10 11  1  0
 11 12  2  0
  1 13  1  0
  1 14  1  0
  1 15  1  0
  3 16  1  0
  3 17  1  0
  3 18  1  0
  4 19  1  0
  5 20  1  0
  5 21  1  0
  6 22  1  0
  6 23  1  0
  7 24  1  0
  7 25  1  0
  8 26  1  0
  9 27  1  0
  9 28  1  0
  9 29  1  0
 10 30  1  0
 10 31  1  0
 11 32  1  0
M  END
>  <id>  (60) 
FLO_060

>  <group>  (60) 
Floral

>  <compound_name>  (60) 
Hydroxycitronellal

$$$$
SPI_061_Eugenol
     RDKit          3D

 24 24  0  0  0  0  0  0  0  0999 V2000
   -2.5729    1.6444   -1.7355 C   0  0  0  0  0  0  0  0  0  0  0  0
   -2.6715    0.6264   -0.7447 O   0  0  0  0  0  0  0  0  0  0  0  0
   -1.5831   -0.1052   -0.2432 C   0  0  0  0  0  0  0  0  0  0  0  0
   -0.2655    0.1148   -0.6930 C   0  0  0  0  0  0  0  0  0  0  0  0
    0.8014   -0.6368   -0.1752 C   0  0  0  0  0  0  0  0  0  0  0  0
    2.2088   -0.3735   -0.6415 C   0  0  0  0  0  0  0  0  0  0  0  0
    2.7807    0.8348    0.0456 C   0  0  0  0  0  0  0  0  0  0  0  0
    3.1226    0.8122    1.3372 C   0  0  0  0  0  0  0  0  0  0  0  0
    0.5500   -1.6018    0.8103 C   0  0  0  0  0  0  0  0  0  0  0  0
   -0.7523   -1.8252    1.2599 C   0  0  0  0  0  0  0  0  0  0  0  0
   -1.8184   -1.0852    0.7391 C   0  0  0  0  0  0  0  0  0  0  0  0
   -3.1063   -1.3365    1.2121 O   0  0  0  0  0  0  0  0  0  0  0  0
   -3.5848    2.0499   -1.9402 H   0  0  0  0  0  0  0  0  0  0  0  0
   -2.1620    1.2225   -2.6770 H   0  0  0  0  0  0  0  0  0  0  0  0
   -1.9261    2.4704   -1.3713 H   0  0  0  0  0  0  0  0  0  0  0  0
   -0.0593    0.8677   -1.4422 H   0  0  0  0  0  0  0  0  0  0  0  0
    2.2041   -0.1962   -1.7387 H   0  0  0  0  0  0  0  0  0  0  0  0
    2.8618   -1.2552   -0.4591 H   0  0  0  0  0  0  0  0  0  0  0  0
    2.9296    1.7458   -0.5265 H   0  0  0  0  0  0  0  0  0  0  0  0
    3.5374    1.6992    1.8046 H   0  0  0  0  0  0  0  0  0  0  0  0
    2.9934   -0.0857    1.9339 H   0  0  0  0  0  0  0  0  0  0  0  0
    1.3624   -2.1808    1.2319 H   0  0  0  0  0  0  0  0  0  0  0  0
   -0.9348   -2.5754    2.0188 H   0  0  0  0  0  0  0  0  0  0  0  0
   -3.9150   -0.8308    0.8712 H   0  0  0  0  0  0  0  0  0  0  0  0
  1  2  1  0
  2  3  1  0
  3  4  1  0
  4  5  2  0
  5  6  1  0
  6  7  1  0
  7  8  2  0
  5  9  1  0
  9 10  2  0
 10 11  1  0
 11 12  1  0
 11  3  2  0
  1 13  1  0
  1 14  1  0
  1 15  1  0
  4 16  1  0
  6 17  1  0
  6 18  1  0
  7 19  1  0
  8 20  1  0
  8 21  1  0
  9 22  1  0
 10 23  1  0
 12 24  1  0
M  END
>  <id>  (61) 
SPI_061

>  <group>  (61) 
Spicy

>  <compound_name>  (61) 
Eugenol

$$$$
SPI_062_Isoeugenol
     RDKit          3D

 24 24  0  0  0  0  0  0  0  0999 V2000
   -2.6699    2.2251    0.0614 C   0  0  0  0  0  0  0  0  0  0  0  0
   -2.8525    0.8177    0.1780 O   0  0  0  0  0  0  0  0  0  0  0  0
   -1.8112   -0.1241    0.1692 C   0  0  0  0  0  0  0  0  0  0  0  0
   -0.4589    0.2510    0.0342 C   0  0  0  0  0  0  0  0  0  0  0  0
    0.5601   -0.7230    0.0359 C   0  0  0  0  0  0  0  0  0  0  0  0
    1.9954   -0.3769   -0.1128 C   0  0  0  0  0  0  0  0  0  0  0  0
    2.5059    0.8276    0.1690 C   0  0  0  0  0  0  0  0  0  0  0  0
    3.9681    1.0944    0.0078 C   0  0  0  0  0  0  0  0  0  0  0  0
    0.2060   -2.0761    0.1468 C   0  0  0  0  0  0  0  0  0  0  0  0
   -1.1315   -2.4513    0.2812 C   0  0  0  0  0  0  0  0  0  0  0  0
   -2.1395   -1.4804    0.2961 C   0  0  0  0  0  0  0  0  0  0  0  0
   -3.4748   -1.8565    0.4330 O   0  0  0  0  0  0  0  0  0  0  0  0
   -2.1938    2.4692   -0.9117 H   0  0  0  0  0  0  0  0  0  0  0  0
   -2.0444    2.5999    0.8990 H   0  0  0  0  0  0  0  0  0  0  0  0
   -3.6597    2.7237    0.1068 H   0  0  0  0  0  0  0  0  0  0  0  0
   -0.2086    1.2926   -0.0965 H   0  0  0  0  0  0  0  0  0  0  0  0
    2.6739   -1.1624   -0.4281 H   0  0  0  0  0  0  0  0  0  0  0  0
    1.8841    1.6284    0.5449 H   0  0  0  0  0  0  0  0  0  0  0  0
    4.2648    0.9500   -1.0526 H   0  0  0  0  0  0  0  0  0  0  0  0
    4.1942    2.1402    0.3038 H   0  0  0  0  0  0  0  0  0  0  0  0
    4.5534    0.4052    0.6528 H   0  0  0  0  0  0  0  0  0  0  0  0
    0.9686   -2.8456    0.1387 H   0  0  0  0  0  0  0  0  0  0  0  0
   -1.3843   -3.5000    0.3739 H   0  0  0  0  0  0  0  0  0  0  0  0
   -3.7454   -2.8286    0.5255 H   0  0  0  0  0  0  0  0  0  0  0  0
  1  2  1  0
  2  3  1  0
  3  4  1  0
  4  5  2  0
  5  6  1  0
  6  7  2  3
  7  8  1  0
  5  9  1  0
  9 10  2  0
 10 11  1  0
 11 12  1  0
 11  3  2  0
  1 13  1  0
  1 14  1  0
  1 15  1  0
  4 16  1  0
  6 17  1  0
  7 18  1  0
  8 19  1  0
  8 20  1  0
  8 21  1  0
  9 22  1  0
 10 23  1  0
 12 24  1  0
M  END
>  <id>  (62) 
SPI_062

>  <group>  (62) 
Spicy

>  <compound_name>  (62) 
Isoeugenol

$$$$
SPI_063_Cinnamaldehyde
     RDKit          3D

 18 18  0  0  0  0  0  0  0  0999 V2000
    3.5135    0.3383    2.3361 O   0  0  0  0  0  0  0  0  0  0  0  0
    2.9391   -0.7605    2.1115 C   0  0  0  0  0  0  0  0  0  0  0  0
    1.7219   -0.8387    1.2876 C   0  0  0  0  0  0  0  0  0  0  0  0
    1.1621    0.2483    0.7352 C   0  0  0  0  0  0  0  0  0  0  0  0
   -0.0654    0.2372   -0.1062 C   0  0  0  0  0  0  0  0  0  0  0  0
   -0.7828   -0.9392   -0.4171 C   0  0  0  0  0  0  0  0  0  0  0  0
   -1.9305   -0.8788   -1.2146 C   0  0  0  0  0  0  0  0  0  0  0  0
   -2.3781    0.3463   -1.7112 C   0  0  0  0  0  0  0  0  0  0  0  0
   -1.6792    1.5163   -1.4120 C   0  0  0  0  0  0  0  0  0  0  0  0
   -0.5315    1.4635   -0.6156 C   0  0  0  0  0  0  0  0  0  0  0  0
    3.3500   -1.6678    2.5338 H   0  0  0  0  0  0  0  0  0  0  0  0
    1.3002   -1.8217    1.1500 H   0  0  0  0  0  0  0  0  0  0  0  0
    1.6301    1.2110    0.9078 H   0  0  0  0  0  0  0  0  0  0  0  0
   -0.4761   -1.9088   -0.0568 H   0  0  0  0  0  0  0  0  0  0  0  0
   -2.4741   -1.7853   -1.4480 H   0  0  0  0  0  0  0  0  0  0  0  0
   -3.2666    0.3888   -2.3280 H   0  0  0  0  0  0  0  0  0  0  0  0
   -2.0266    2.4662   -1.7972 H   0  0  0  0  0  0  0  0  0  0  0  0
   -0.0060    2.3852   -0.3970 H   0  0  0  0  0  0  0  0  0  0  0  0
  1  2  2  0
  2  3  1  0
  3  4  2  3
  4  5  1  0
  5  6  2  0
  6  7  1  0
  7  8  2  0
  8  9  1  0
  9 10  2  0
 10  5  1  0
  2 11  1  0
  3 12  1  0
  4 13  1  0
  6 14  1  0
  7 15  1  0
  8 16  1  0
  9 17  1  0
 10 18  1  0
M  END
>  <id>  (63) 
SPI_063

>  <group>  (63) 
Spicy

>  <compound_name>  (63) 
Cinnamaldehyde

$$$$
SPI_064_Cinnamyl acetate
     RDKit          3D

 25 25  0  0  0  0  0  0  0  0999 V2000
    4.5925    0.1603    1.2765 C   0  0  0  0  0  0  0  0  0  0  0  0
    3.8361   -0.8181    0.4438 C   0  0  0  0  0  0  0  0  0  0  0  0
    4.3384   -1.9483    0.1972 O   0  0  0  0  0  0  0  0  0  0  0  0
    2.5581   -0.4888   -0.0156 O   0  0  0  0  0  0  0  0  0  0  0  0
    1.7694   -1.3811   -0.7964 C   0  0  0  0  0  0  0  0  0  0  0  0
    0.4586   -0.7382   -1.1251 C   0  0  0  0  0  0  0  0  0  0  0  0
   -0.4229   -0.4410   -0.1621 C   0  0  0  0  0  0  0  0  0  0  0  0
   -1.7461    0.1817   -0.4128 C   0  0  0  0  0  0  0  0  0  0  0  0
   -2.0390    0.8954   -1.5938 C   0  0  0  0  0  0  0  0  0  0  0  0
   -3.2997    1.4730   -1.7760 C   0  0  0  0  0  0  0  0  0  0  0  0
   -4.2764    1.3542   -0.7852 C   0  0  0  0  0  0  0  0  0  0  0  0
   -3.9929    0.6629    0.3941 C   0  0  0  0  0  0  0  0  0  0  0  0
   -2.7343    0.0839    0.5824 C   0  0  0  0  0  0  0  0  0  0  0  0
    5.6749    0.1111    1.0336 H   0  0  0  0  0  0  0  0  0  0  0  0
    4.2270    1.1896    1.0780 H   0  0  0  0  0  0  0  0  0  0  0  0
    4.4461   -0.0774    2.3506 H   0  0  0  0  0  0  0  0  0  0  0  0
    2.3059   -1.6211   -1.7398 H   0  0  0  0  0  0  0  0  0  0  0  0
    1.5927   -2.3245   -0.2347 H   0  0  0  0  0  0  0  0  0  0  0  0
    0.2358   -0.5527   -2.1666 H   0  0  0  0  0  0  0  0  0  0  0  0
   -0.1752   -0.7040    0.8607 H   0  0  0  0  0  0  0  0  0  0  0  0
   -1.2983    1.0327   -2.3688 H   0  0  0  0  0  0  0  0  0  0  0  0
   -3.5172    2.0198   -2.6845 H   0  0  0  0  0  0  0  0  0  0  0  0
   -5.2507    1.8033   -0.9287 H   0  0  0  0  0  0  0  0  0  0  0  0
   -4.7486    0.5759    1.1641 H   0  0  0  0  0  0  0  0  0  0  0  0
   -2.5341   -0.4485    1.5045 H   0  0  0  0  0  0  0  0  0  0  0  0
  1  2  1  0
  2  3  2  0
  2  4  1  0
  4  5  1  0
  5  6  1  0
  6  7  2  3
  7  8  1  0
  8  9  2  0
  9 10  1  0
 10 11  2  0
 11 12  1  0
 12 13  2  0
 13  8  1  0
  1 14  1  0
  1 15  1  0
  1 16  1  0
  5 17  1  0
  5 18  1  0
  6 19  1  0
  7 20  1  0
  9 21  1  0
 10 22  1  0
 11 23  1  0
 12 24  1  0
 13 25  1  0
M  END
>  <id>  (64) 
SPI_064

>  <group>  (64) 
Spicy

>  <compound_name>  (64) 
Cinnamyl acetate

$$$$
SPI_065_Anethole
     RDKit          3D

 23 23  0  0  0  0  0  0  0  0999 V2000
    4.3694   -0.7925   -0.0681 C   0  0  0  0  0  0  0  0  0  0  0  0
    3.5606    0.3790   -0.0379 O   0  0  0  0  0  0  0  0  0  0  0  0
    2.1594    0.3759   -0.1051 C   0  0  0  0  0  0  0  0  0  0  0  0
    1.4109   -0.8104   -0.2137 C   0  0  0  0  0  0  0  0  0  0  0  0
    0.0147   -0.7625   -0.2756 C   0  0  0  0  0  0  0  0  0  0  0  0
   -0.6611    0.4726   -0.2214 C   0  0  0  0  0  0  0  0  0  0  0  0
   -2.1394    0.5800   -0.2939 C   0  0  0  0  0  0  0  0  0  0  0  0
   -2.9768   -0.4284   -0.0237 C   0  0  0  0  0  0  0  0  0  0  0  0
   -4.4571   -0.2351   -0.1066 C   0  0  0  0  0  0  0  0  0  0  0  0
    0.0939    1.6527   -0.1282 C   0  0  0  0  0  0  0  0  0  0  0  0
    1.4891    1.6024   -0.0656 C   0  0  0  0  0  0  0  0  0  0  0  0
    4.1235   -1.4486    0.7935 H   0  0  0  0  0  0  0  0  0  0  0  0
    5.4365   -0.4983    0.0026 H   0  0  0  0  0  0  0  0  0  0  0  0
    4.2138   -1.3394   -1.0220 H   0  0  0  0  0  0  0  0  0  0  0  0
    1.8984   -1.7748   -0.2581 H   0  0  0  0  0  0  0  0  0  0  0  0
   -0.5222   -1.6937   -0.3887 H   0  0  0  0  0  0  0  0  0  0  0  0
   -2.5631    1.5467   -0.5440 H   0  0  0  0  0  0  0  0  0  0  0  0
   -2.6103   -1.3975    0.2851 H   0  0  0  0  0  0  0  0  0  0  0  0
   -4.7450    0.0463   -1.1416 H   0  0  0  0  0  0  0  0  0  0  0  0
   -4.7758    0.5638    0.5961 H   0  0  0  0  0  0  0  0  0  0  0  0
   -4.9751   -1.1785    0.1653 H   0  0  0  0  0  0  0  0  0  0  0  0
   -0.3978    2.6175   -0.0954 H   0  0  0  0  0  0  0  0  0  0  0  0
    2.0533    2.5231    0.0134 H   0  0  0  0  0  0  0  0  0  0  0  0
  1  2  1  0
  2  3  1  0
  3  4  1  0
  4  5  2  0
  5  6  1  0
  6  7  1  0
  7  8  2  3
  8  9  1  0
  6 10  2  0
 10 11  1  0
 11  3  2  0
  1 12  1  0
  1 13  1  0
  1 14  1  0
  4 15  1  0
  5 16  1  0
  7 17  1  0
  8 18  1  0
  9 19  1  0
  9 20  1  0
  9 21  1  0
 10 22  1  0
 11 23  1  0
M  END
>  <id>  (65) 
SPI_065

>  <group>  (65) 
Spicy

>  <compound_name>  (65) 
Anethole

$$$$
SPI_066_Estragole
     RDKit          3D

 23 23  0  0  0  0  0  0  0  0999 V2000
    3.3562    0.4341   -0.9506 C   0  0  0  0  0  0  0  0  0  0  0  0
    3.1730   -0.6199   -0.1498 C   0  0  0  0  0  0  0  0  0  0  0  0
    2.3366   -0.5301    1.0957 C   0  0  0  0  0  0  0  0  0  0  0  0
    0.8752   -0.4217    0.7508 C   0  0  0  0  0  0  0  0  0  0  0  0
    0.1446   -1.5688    0.4049 C   0  0  0  0  0  0  0  0  0  0  0  0
   -1.2056   -1.4672    0.0581 C   0  0  0  0  0  0  0  0  0  0  0  0
   -1.8449   -0.2222    0.0434 C   0  0  0  0  0  0  0  0  0  0  0  0
   -3.2012   -0.1734   -0.3116 O   0  0  0  0  0  0  0  0  0  0  0  0
   -3.9744    1.0209   -0.3692 C   0  0  0  0  0  0  0  0  0  0  0  0
   -1.1104    0.9308    0.3809 C   0  0  0  0  0  0  0  0  0  0  0  0
    0.2402    0.8297    0.7281 C   0  0  0  0  0  0  0  0  0  0  0  0
    3.9695    0.3395   -1.8407 H   0  0  0  0  0  0  0  0  0  0  0  0
    2.8999    1.3931   -0.7253 H   0  0  0  0  0  0  0  0  0  0  0  0
    3.6498   -1.5636   -0.3981 H   0  0  0  0  0  0  0  0  0  0  0  0
    2.5019   -1.4429    1.7079 H   0  0  0  0  0  0  0  0  0  0  0  0
    2.6668    0.3361    1.7103 H   0  0  0  0  0  0  0  0  0  0  0  0
    0.6218   -2.5411    0.4025 H   0  0  0  0  0  0  0  0  0  0  0  0
   -1.7581   -2.3608   -0.2035 H   0  0  0  0  0  0  0  0  0  0  0  0
   -4.0069    1.5033    0.6306 H   0  0  0  0  0  0  0  0  0  0  0  0
   -5.0100    0.7679   -0.6754 H   0  0  0  0  0  0  0  0  0  0  0  0
   -3.5430    1.7193   -1.1170 H   0  0  0  0  0  0  0  0  0  0  0  0
   -1.5722    1.9087    0.3755 H   0  0  0  0  0  0  0  0  0  0  0  0
    0.7911    1.7281    0.9779 H   0  0  0  0  0  0  0  0  0  0  0  0
  1  2  2  0
  2  3  1  0
  3  4  1  0
  4  5  1  0
  5  6  2  0
  6  7  1  0
  7  8  1  0
  8  9  1  0
  7 10  2  0
 10 11  1  0
 11  4  2  0
  1 12  1  0
  1 13  1  0
  2 14  1  0
  3 15  1  0
  3 16  1  0
  5 17  1  0
  6 18  1  0
  9 19  1  0
  9 20  1  0
  9 21  1  0
 10 22  1  0
 11 23  1  0
M  END
>  <id>  (66) 
SPI_066

>  <group>  (66) 
Spicy

>  <compound_name>  (66) 
Estragole

$$$$
SPI_067_Thymol
     RDKit          3D

 25 25  0  0  0  0  0  0  0  0999 V2000
    3.7881   -0.8971   -0.2762 C   0  0  0  0  0  0  0  0  0  0  0  0
    2.3507   -0.4872   -0.1480 C   0  0  0  0  0  0  0  0  0  0  0  0
    1.5006   -1.1644    0.7312 C   0  0  0  0  0  0  0  0  0  0  0  0
    0.1559   -0.8043    0.8302 C   0  0  0  0  0  0  0  0  0  0  0  0
   -0.3733    0.2506    0.0558 C   0  0  0  0  0  0  0  0  0  0  0  0
   -1.8412    0.6441    0.1967 C   0  0  0  0  0  0  0  0  0  0  0  0
   -2.7112   -0.2193   -0.7214 C   0  0  0  0  0  0  0  0  0  0  0  0
   -2.3516    0.5809    1.6462 C   0  0  0  0  0  0  0  0  0  0  0  0
    0.4756    0.8754   -0.8980 C   0  0  0  0  0  0  0  0  0  0  0  0
    0.0190    1.8387   -1.8020 O   0  0  0  0  0  0  0  0  0  0  0  0
    1.8267    0.5152   -0.9724 C   0  0  0  0  0  0  0  0  0  0  0  0
    4.1722   -1.2871    0.6906 H   0  0  0  0  0  0  0  0  0  0  0  0
    4.4176   -0.0305   -0.5705 H   0  0  0  0  0  0  0  0  0  0  0  0
    3.8787   -1.6896   -1.0481 H   0  0  0  0  0  0  0  0  0  0  0  0
    1.8788   -1.9741    1.3434 H   0  0  0  0  0  0  0  0  0  0  0  0
   -0.4661   -1.3594    1.5177 H   0  0  0  0  0  0  0  0  0  0  0  0
   -1.9700    1.7055   -0.0970 H   0  0  0  0  0  0  0  0  0  0  0  0
   -3.7732    0.1003   -0.6556 H   0  0  0  0  0  0  0  0  0  0  0  0
   -2.3810   -0.1103   -1.7765 H   0  0  0  0  0  0  0  0  0  0  0  0
   -2.6395   -1.2902   -0.4334 H   0  0  0  0  0  0  0  0  0  0  0  0
   -1.6440    1.1013    2.3266 H   0  0  0  0  0  0  0  0  0  0  0  0
   -3.3371    1.0891    1.7200 H   0  0  0  0  0  0  0  0  0  0  0  0
   -2.4875   -0.4666    1.9880 H   0  0  0  0  0  0  0  0  0  0  0  0
   -0.9545    2.0709   -1.9396 H   0  0  0  0  0  0  0  0  0  0  0  0
    2.4663    1.0080   -1.6951 H   0  0  0  0  0  0  0  0  0  0  0  0
  1  2  1  0
  2  3  1  0
  3  4  2  0
  4  5  1  0
  5  6  1  0
  6  7  1  0
  6  8  1  0
  5  9  2  0
  9 10  1  0
  9 11  1  0
 11  2  2  0
  1 12  1  0
  1 13  1  0
  1 14  1  0
  3 15  1  0
  4 16  1  0
  6 17  1  0
  7 18  1  0
  7 19  1  0
  7 20  1  0
  8 21  1  0
  8 22  1  0
  8 23  1  0
 10 24  1  0
 11 25  1  0
M  END
>  <id>  (67) 
SPI_067

>  <group>  (67) 
Spicy

>  <compound_name>  (67) 
Thymol

$$$$
SPI_068_Carvacrol
     RDKit          3D

 25 25  0  0  0  0  0  0  0  0999 V2000
    2.9458   -1.2218   -0.9399 C   0  0  0  0  0  0  0  0  0  0  0  0
    1.9510   -0.2602   -0.3598 C   0  0  0  0  0  0  0  0  0  0  0  0
    2.3877    0.9136    0.2660 C   0  0  0  0  0  0  0  0  0  0  0  0
    1.4652    1.7900    0.8380 C   0  0  0  0  0  0  0  0  0  0  0  0
    0.0940    1.5009    0.8052 C   0  0  0  0  0  0  0  0  0  0  0  0
   -0.8098    2.3929    1.3830 O   0  0  0  0  0  0  0  0  0  0  0  0
   -0.3623    0.3123    0.1931 C   0  0  0  0  0  0  0  0  0  0  0  0
   -1.8450   -0.0293    0.1535 C   0  0  0  0  0  0  0  0  0  0  0  0
   -2.1348   -1.3215    0.9270 C   0  0  0  0  0  0  0  0  0  0  0  0
   -2.3522   -0.1258   -1.2906 C   0  0  0  0  0  0  0  0  0  0  0  0
    0.5821   -0.5639   -0.3798 C   0  0  0  0  0  0  0  0  0  0  0  0
    3.2372   -1.9626   -0.1664 H   0  0  0  0  0  0  0  0  0  0  0  0
    2.5100   -1.7581   -1.8097 H   0  0  0  0  0  0  0  0  0  0  0  0
    3.8542   -0.6856   -1.2884 H   0  0  0  0  0  0  0  0  0  0  0  0
    3.4434    1.1516    0.3108 H   0  0  0  0  0  0  0  0  0  0  0  0
    1.8186    2.6968    1.3123 H   0  0  0  0  0  0  0  0  0  0  0  0
   -0.5019    3.2499    1.8274 H   0  0  0  0  0  0  0  0  0  0  0  0
   -2.4365    0.7734    0.6437 H   0  0  0  0  0  0  0  0  0  0  0  0
   -3.2303   -1.5016    0.9690 H   0  0  0  0  0  0  0  0  0  0  0  0
   -1.7577   -1.2338    1.9685 H   0  0  0  0  0  0  0  0  0  0  0  0
   -1.6531   -2.1972    0.4430 H   0  0  0  0  0  0  0  0  0  0  0  0
   -3.4529   -0.2767   -1.2974 H   0  0  0  0  0  0  0  0  0  0  0  0
   -2.1281    0.8160   -1.8360 H   0  0  0  0  0  0  0  0  0  0  0  0
   -1.8784   -0.9740   -1.8284 H   0  0  0  0  0  0  0  0  0  0  0  0
    0.2539   -1.4854   -0.8441 H   0  0  0  0  0  0  0  0  0  0  0  0
  1  2  1  0
  2  3  1  0
  3  4  2  0
  4  5  1  0
  5  6  1  0
  5  7  2  0
  7  8  1  0
  8  9  1  0
  8 10  1  0
  7 11  1  0
 11  2  2  0
  1 12  1  0
  1 13  1  0
  1 14  1  0
  3 15  1  0
  4 16  1  0
  6 17  1  0
  8 18  1  0
  9 19  1  0
  9 20  1  0
  9 21  1  0
 10 22  1  0
 10 23  1  0
 10 24  1  0
 11 25  1  0
M  END
>  <id>  (68) 
SPI_068

>  <group>  (68) 
Spicy

>  <compound_name>  (68) 
Carvacrol

$$$$
SPI_069_Menthol
     RDKit          3D

 31 31  0  0  0  0  0  0  0  0999 V2000
   -3.0588   -0.8134    0.0824 C   0  0  0  0  0  0  0  0  0  0  0  0
   -2.0118    0.2824    0.3708 C   0  0  0  0  0  0  0  0  0  0  0  0
   -2.6575    1.6511    0.0718 C   0  0  0  0  0  0  0  0  0  0  0  0
   -0.6986    0.0358   -0.4530 C   0  0  0  0  0  0  0  0  0  0  0  0
    0.3495    1.1886   -0.3567 C   0  0  0  0  0  0  0  0  0  0  0  0
    1.4044    0.9426    0.7243 C   0  0  0  0  0  0  0  0  0  0  0  0
    2.2254   -0.3479    0.4579 C   0  0  0  0  0  0  0  0  0  0  0  0
    3.5922   -0.0187   -0.1574 C   0  0  0  0  0  0  0  0  0  0  0  0
    1.4726   -1.3689   -0.4327 C   0  0  0  0  0  0  0  0  0  0  0  0
   -0.0459   -1.3675   -0.1749 C   0  0  0  0  0  0  0  0  0  0  0  0
   -0.3226   -1.8693    1.1126 O   0  0  0  0  0  0  0  0  0  0  0  0
   -3.3285   -0.8191   -0.9956 H   0  0  0  0  0  0  0  0  0  0  0  0
   -3.9797   -0.6355    0.6781 H   0  0  0  0  0  0  0  0  0  0  0  0
   -2.6901   -1.8204    0.3596 H   0  0  0  0  0  0  0  0  0  0  0  0
   -1.7759    0.2594    1.4567 H   0  0  0  0  0  0  0  0  0  0  0  0
   -3.7005    1.6909    0.4528 H   0  0  0  0  0  0  0  0  0  0  0  0
   -2.1166    2.4679    0.5914 H   0  0  0  0  0  0  0  0  0  0  0  0
   -2.6764    1.8488   -1.0214 H   0  0  0  0  0  0  0  0  0  0  0  0
   -1.0115    0.0251   -1.5226 H   0  0  0  0  0  0  0  0  0  0  0  0
   -0.1099    2.1798   -0.1923 H   0  0  0  0  0  0  0  0  0  0  0  0
    0.8769    1.2741   -1.3330 H   0  0  0  0  0  0  0  0  0  0  0  0
    0.8953    0.8744    1.7094 H   0  0  0  0  0  0  0  0  0  0  0  0
    2.0713    1.8305    0.7874 H   0  0  0  0  0  0  0  0  0  0  0  0
    2.4223   -0.8300    1.4416 H   0  0  0  0  0  0  0  0  0  0  0  0
    3.4673    0.5154   -1.1238 H   0  0  0  0  0  0  0  0  0  0  0  0
    4.1681   -0.9524   -0.3334 H   0  0  0  0  0  0  0  0  0  0  0  0
    4.1791    0.6229    0.5340 H   0  0  0  0  0  0  0  0  0  0  0  0
    1.8790   -2.3883   -0.2523 H   0  0  0  0  0  0  0  0  0  0  0  0
    1.6397   -1.1361   -1.5084 H   0  0  0  0  0  0  0  0  0  0  0  0
   -0.4919   -2.0881   -0.8956 H   0  0  0  0  0  0  0  0  0  0  0  0
    0.0334   -1.2341    1.7824 H   0  0  0  0  0  0  0  0  0  0  0  0
  1  2  1  0
  2  3  1  0
  2  4  1  0
  4  5  1  0
  5  6  1  0
  6  7  1  0
  7  8  1  0
  7  9  1  0
  9 10  1  0
 10 11  1  0
 10  4  1  0
  1 12  1  0
  1 13  1  0
  1 14  1  0
  2 15  1  0
  3 16  1  0
  3 17  1  0
  3 18  1  0
  4 19  1  0
  5 20  1  0
  5 21  1  0
  6 22  1  0
  6 23  1  0
  7 24  1  0
  8 25  1  0
  8 26  1  0
  8 27  1  0
  9 28  1  0
  9 29  1  0
 10 30  1  0
 11 31  1  0
M  END
>  <id>  (69) 
SPI_069

>  <group>  (69) 
Spicy

>  <compound_name>  (69) 
Menthol

$$$$
SPI_070_Menthone
     RDKit          3D

 29 29  0  0  0  0  0  0  0  0999 V2000
   -2.9429   -0.5870   -1.1951 C   0  0  0  0  0  0  0  0  0  0  0  0
   -2.0840   -0.1235   -0.0071 C   0  0  0  0  0  0  0  0  0  0  0  0
   -1.8166    1.3849   -0.1105 C   0  0  0  0  0  0  0  0  0  0  0  0
   -0.7939   -0.9890    0.1496 C   0  0  0  0  0  0  0  0  0  0  0  0
   -0.0423   -0.7400    1.4865 C   0  0  0  0  0  0  0  0  0  0  0  0
    1.1203    0.2597    1.3925 C   0  0  0  0  0  0  0  0  0  0  0  0
    2.0911   -0.1303    0.2697 C   0  0  0  0  0  0  0  0  0  0  0  0
    3.3049    0.8060    0.2562 C   0  0  0  0  0  0  0  0  0  0  0  0
    1.3701   -0.0946   -1.0836 C   0  0  0  0  0  0  0  0  0  0  0  0
    0.1254   -0.9426   -1.0614 C   0  0  0  0  0  0  0  0  0  0  0  0
   -0.1617   -1.5925   -2.0558 O   0  0  0  0  0  0  0  0  0  0  0  0
   -2.4550   -0.3375   -2.1608 H   0  0  0  0  0  0  0  0  0  0  0  0
   -3.1157   -1.6832   -1.1468 H   0  0  0  0  0  0  0  0  0  0  0  0
   -3.9336   -0.0848   -1.1668 H   0  0  0  0  0  0  0  0  0  0  0  0
   -2.7045   -0.2824    0.9033 H   0  0  0  0  0  0  0  0  0  0  0  0
   -2.7682    1.9295   -0.2906 H   0  0  0  0  0  0  0  0  0  0  0  0
   -1.1248    1.6138   -0.9459 H   0  0  0  0  0  0  0  0  0  0  0  0
   -1.4044    1.7724    0.8416 H   0  0  0  0  0  0  0  0  0  0  0  0
   -1.1500   -2.0424    0.2219 H   0  0  0  0  0  0  0  0  0  0  0  0
   -0.7490   -0.4027    2.2752 H   0  0  0  0  0  0  0  0  0  0  0  0
    0.3776   -1.7086    1.8396 H   0  0  0  0  0  0  0  0  0  0  0  0
    0.7429    1.2888    1.2262 H   0  0  0  0  0  0  0  0  0  0  0  0
    1.6594    0.2596    2.3653 H   0  0  0  0  0  0  0  0  0  0  0  0
    2.4603   -1.1648    0.4535 H   0  0  0  0  0  0  0  0  0  0  0  0
    4.0092    0.5071   -0.5492 H   0  0  0  0  0  0  0  0  0  0  0  0
    3.8440    0.7471    1.2257 H   0  0  0  0  0  0  0  0  0  0  0  0
    2.9891    1.8577    0.0849 H   0  0  0  0  0  0  0  0  0  0  0  0
    1.0930    0.9484   -1.3459 H   0  0  0  0  0  0  0  0  0  0  0  0
    2.0595   -0.4692   -1.8724 H   0  0  0  0  0  0  0  0  0  0  0  0
  1  2  1  0
  2  3  1  0
  2  4  1  0
  4  5  1  0
  5  6  1  0
  6  7  1  0
  7  8  1  0
  7  9  1  0
  9 10  1  0
 10 11  2  0
 10  4  1  0
  1 12  1  0
  1 13  1  0
  1 14  1  0
  2 15  1  0
  3 16  1  0
  3 17  1  0
  3 18  1  0
  4 19  1  0
  5 20  1  0
  5 21  1  0
  6 22  1  0
  6 23  1  0
  7 24  1  0
  8 25  1  0
  8 26  1  0
  8 27  1  0
  9 28  1  0
  9 29  1  0
M  END
>  <id>  (70) 
SPI_070

>  <group>  (70) 
Spicy

>  <compound_name>  (70) 
Menthone

$$$$
SPI_071_Carvone
     RDKit          3D

 25 25  0  0  0  0  0  0  0  0999 V2000
    2.1845   -3.0199   -0.1661 C   0  0  0  0  0  0  0  0  0  0  0  0
    1.3250   -1.8003    0.0216 C   0  0  0  0  0  0  0  0  0  0  0  0
    0.0010   -1.9374    0.2087 C   0  0  0  0  0  0  0  0  0  0  0  0
   -0.9028   -0.7516    0.4195 C   0  0  0  0  0  0  0  0  0  0  0  0
   -0.3947    0.4782   -0.3573 C   0  0  0  0  0  0  0  0  0  0  0  0
    1.0665    0.7832    0.0225 C   0  0  0  0  0  0  0  0  0  0  0  0
    1.9188   -0.4475   -0.1236 C   0  0  0  0  0  0  0  0  0  0  0  0
    3.1545   -0.3171   -0.3349 O   0  0  0  0  0  0  0  0  0  0  0  0
   -1.2945    1.6885   -0.1452 C   0  0  0  0  0  0  0  0  0  0  0  0
   -1.4728    2.2222    1.0757 C   0  0  0  0  0  0  0  0  0  0  0  0
   -2.0083    2.3138   -1.3159 C   0  0  0  0  0  0  0  0  0  0  0  0
    2.3015   -3.2256   -1.2506 H   0  0  0  0  0  0  0  0  0  0  0  0
    3.1871   -2.8585    0.2827 H   0  0  0  0  0  0  0  0  0  0  0  0
    1.7356   -3.9103    0.3245 H   0  0  0  0  0  0  0  0  0  0  0  0
   -0.4402   -2.9258    0.2614 H   0  0  0  0  0  0  0  0  0  0  0  0
   -0.9419   -0.5369    1.5087 H   0  0  0  0  0  0  0  0  0  0  0  0
   -1.9286   -1.0116    0.0795 H   0  0  0  0  0  0  0  0  0  0  0  0
   -0.4035    0.2092   -1.4377 H   0  0  0  0  0  0  0  0  0  0  0  0
    1.1362    1.1285    1.0759 H   0  0  0  0  0  0  0  0  0  0  0  0
    1.4582    1.5884   -0.6369 H   0  0  0  0  0  0  0  0  0  0  0  0
   -0.9823    1.8098    1.9510 H   0  0  0  0  0  0  0  0  0  0  0  0
   -2.1171    3.0853    1.2152 H   0  0  0  0  0  0  0  0  0  0  0  0
   -1.6948    3.3738   -1.4236 H   0  0  0  0  0  0  0  0  0  0  0  0
   -3.1058    2.2746   -1.1504 H   0  0  0  0  0  0  0  0  0  0  0  0
   -1.7819    1.7871   -2.2660 H   0  0  0  0  0  0  0  0  0  0  0  0
  1  2  1  0
  2  3  2  0
  3  4  1  0
  4  5  1  0
  5  6  1  0
  6  7  1  0
  7  8  2  0
  5  9  1  0
  9 10  2  0
  9 11  1  0
  7  2  1  0
  1 12  1  0
  1 13  1  0
  1 14  1  0
  3 15  1  0
  4 16  1  0
  4 17  1  0
  5 18  1  0
  6 19  1  0
  6 20  1  0
 10 21  1  0
 10 22  1  0
 11 23  1  0
 11 24  1  0
 11 25  1  0
M  END
>  <id>  (71) 
SPI_071

>  <group>  (71) 
Spicy

>  <compound_name>  (71) 
Carvone

$$$$
SPI_072_Camphor
     RDKit          3D

 27 28  0  0  0  0  0  0  0  0999 V2000
    1.5081    0.1361    1.4079 C   0  0  0  0  0  0  0  0  0  0  0  0
    0.7682    0.0526    0.0389 C   0  0  0  0  0  0  0  0  0  0  0  0
    1.7912   -0.5386   -0.9803 C   0  0  0  0  0  0  0  0  0  0  0  0
    0.1431    1.3930   -0.4173 C   0  0  0  0  0  0  0  0  0  0  0  0
   -0.9333    1.6560    0.6721 C   0  0  0  0  0  0  0  0  0  0  0  0
   -1.4519    0.2332    0.9989 C   0  0  0  0  0  0  0  0  0  0  0  0
   -0.6007   -0.6608    0.0655 C   0  0  0  0  0  0  0  0  0  0  0  0
   -0.5893   -2.1484    0.4357 C   0  0  0  0  0  0  0  0  0  0  0  0
   -1.1022   -0.3539   -1.3238 C   0  0  0  0  0  0  0  0  0  0  0  0
   -1.8426   -1.0589   -1.9919 O   0  0  0  0  0  0  0  0  0  0  0  0
   -0.6279    1.0124   -1.7121 C   0  0  0  0  0  0  0  0  0  0  0  0
    2.3798    0.8191    1.3198 H   0  0  0  0  0  0  0  0  0  0  0  0
    0.8903    0.5013    2.2485 H   0  0  0  0  0  0  0  0  0  0  0  0
    1.8840   -0.8668    1.7023 H   0  0  0  0  0  0  0  0  0  0  0  0
    2.2367   -1.4749   -0.5815 H   0  0  0  0  0  0  0  0  0  0  0  0
    1.3520   -0.7992   -1.9636 H   0  0  0  0  0  0  0  0  0  0  0  0
    2.6123    0.1892   -1.1542 H   0  0  0  0  0  0  0  0  0  0  0  0
    0.8632    2.2286   -0.5509 H   0  0  0  0  0  0  0  0  0  0  0  0
   -0.4883    2.1424    1.5660 H   0  0  0  0  0  0  0  0  0  0  0  0
   -1.7524    2.3111    0.3026 H   0  0  0  0  0  0  0  0  0  0  0  0
   -1.2933   -0.0180    2.0697 H   0  0  0  0  0  0  0  0  0  0  0  0
   -2.5393    0.1402    0.7792 H   0  0  0  0  0  0  0  0  0  0  0  0
   -1.6253   -2.5484    0.4276 H   0  0  0  0  0  0  0  0  0  0  0  0
    0.0196   -2.7253   -0.2917 H   0  0  0  0  0  0  0  0  0  0  0  0
   -0.1655   -2.2899    1.4517 H   0  0  0  0  0  0  0  0  0  0  0  0
   -1.4792    1.6952   -1.9232 H   0  0  0  0  0  0  0  0  0  0  0  0
    0.0428    0.9726   -2.5960 H   0  0  0  0  0  0  0  0  0  0  0  0
  1  2  1  0
  2  3  1  0
  2  4  1  0
  4  5  1  0
  5  6  1  0
  6  7  1  0
  7  8  1  0
  7  9  1  0
  9 10  2  0
  9 11  1  0
  7  2  1  0
 11  4  1  0
  1 12  1  0
  1 13  1  0
  1 14  1  0
  3 15  1  0
  3 16  1  0
  3 17  1  0
  4 18  1  0
  5 19  1  0
  5 20  1  0
  6 21  1  0
  6 22  1  0
  8 23  1  0
  8 24  1  0
  8 25  1  0
 11 26  1  0
 11 27  1  0
M  END
>  <id>  (72) 
SPI_072

>  <group>  (72) 
Spicy

>  <compound_name>  (72) 
Camphor

$$$$
SPI_073_Eucalyptol
     RDKit          3D

 29 30  0  0  0  0  0  0  0  0999 V2000
   -1.7655    0.5421   -1.3626 C   0  0  0  0  0  0  0  0  0  0  0  0
   -0.9201    0.5243   -0.0673 C   0  0  0  0  0  0  0  0  0  0  0  0
   -1.9123    0.6027    1.1168 C   0  0  0  0  0  0  0  0  0  0  0  0
   -0.1525    1.7385   -0.0515 O   0  0  0  0  0  0  0  0  0  0  0  0
    1.2510    1.5142    0.0371 C   0  0  0  0  0  0  0  0  0  0  0  0
    1.7186    0.6860   -1.1812 C   0  0  0  0  0  0  0  0  0  0  0  0
    1.0303   -0.6987   -1.1633 C   0  0  0  0  0  0  0  0  0  0  0  0
    0.0222   -0.7628    0.0199 C   0  0  0  0  0  0  0  0  0  0  0  0
   -0.7216   -2.1142    0.0089 C   0  0  0  0  0  0  0  0  0  0  0  0
    0.8838   -0.6383    1.3093 C   0  0  0  0  0  0  0  0  0  0  0  0
    1.5692    0.7477    1.3410 C   0  0  0  0  0  0  0  0  0  0  0  0
   -2.4292   -0.3439   -1.4309 H   0  0  0  0  0  0  0  0  0  0  0  0
   -2.4114    1.4464   -1.3846 H   0  0  0  0  0  0  0  0  0  0  0  0
   -1.1289    0.5949   -2.2676 H   0  0  0  0  0  0  0  0  0  0  0  0
   -2.5820   -0.2808    1.1494 H   0  0  0  0  0  0  0  0  0  0  0  0
   -1.3868    0.7014    2.0870 H   0  0  0  0  0  0  0  0  0  0  0  0
   -2.5537    1.5051    1.0184 H   0  0  0  0  0  0  0  0  0  0  0  0
    1.7749    2.4937    0.0442 H   0  0  0  0  0  0  0  0  0  0  0  0
    1.4554    1.2280   -2.1155 H   0  0  0  0  0  0  0  0  0  0  0  0
    2.8237    0.5650   -1.1547 H   0  0  0  0  0  0  0  0  0  0  0  0
    0.5293   -0.8942   -2.1348 H   0  0  0  0  0  0  0  0  0  0  0  0
    1.8025   -1.4929   -1.0536 H   0  0  0  0  0  0  0  0  0  0  0  0
   -1.2994   -2.2489   -0.9278 H   0  0  0  0  0  0  0  0  0  0  0  0
   -1.4063   -2.2048    0.8763 H   0  0  0  0  0  0  0  0  0  0  0  0
    0.0079   -2.9500    0.0726 H   0  0  0  0  0  0  0  0  0  0  0  0
    0.2712   -0.7878    2.2233 H   0  0  0  0  0  0  0  0  0  0  0  0
    1.6613   -1.4347    1.3303 H   0  0  0  0  0  0  0  0  0  0  0  0
    2.6693    0.6287    1.4510 H   0  0  0  0  0  0  0  0  0  0  0  0
    1.1991    1.3336    2.2101 H   0  0  0  0  0  0  0  0  0  0  0  0
  1  2  1  0
  2  3  1  0
  2  4  1  0
  4  5  1  0
  5  6  1  0
  6  7  1  0
  7  8  1  0
  8  9  1  0
  8 10  1  0
 10 11  1  0
  8  2  1  0
 11  5  1  0
  1 12  1  0
  1 13  1  0
  1 14  1  0
  3 15  1  0
  3 16  1  0
  3 17  1  0
  5 18  1  0
  6 19  1  0
  6 20  1  0
  7 21  1  0
  7 22  1  0
  9 23  1  0
  9 24  1  0
  9 25  1  0
 10 26  1  0
 10 27  1  0
 11 28  1  0
 11 29  1  0
M  END
>  <id>  (73) 
SPI_073

>  <group>  (73) 
Spicy

>  <compound_name>  (73) 
Eucalyptol

$$$$
SPI_074_Borneol
     RDKit          3D

 29 30  0  0  0  0  0  0  0  0999 V2000
    1.9376    0.6348   -0.9086 C   0  0  0  0  0  0  0  0  0  0  0  0
    0.8478   -0.1761   -0.1392 C   0  0  0  0  0  0  0  0  0  0  0  0
    1.6159   -0.9789    0.9549 C   0  0  0  0  0  0  0  0  0  0  0  0
   -0.0322   -1.0513   -1.0459 C   0  0  0  0  0  0  0  0  0  0  0  0
   -0.7592   -0.0169   -1.9404 C   0  0  0  0  0  0  0  0  0  0  0  0
   -0.9874    1.1672   -0.9785 C   0  0  0  0  0  0  0  0  0  0  0  0
   -0.3676    0.6491    0.3493 C   0  0  0  0  0  0  0  0  0  0  0  0
   -0.0609    1.7784    1.3439 C   0  0  0  0  0  0  0  0  0  0  0  0
   -1.3634   -0.4256    0.8822 C   0  0  0  0  0  0  0  0  0  0  0  0
   -1.1006   -0.7677    2.2187 O   0  0  0  0  0  0  0  0  0  0  0  0
   -1.1039   -1.6134   -0.0761 C   0  0  0  0  0  0  0  0  0  0  0  0
    1.5563    1.3046   -1.7001 H   0  0  0  0  0  0  0  0  0  0  0  0
    2.6508   -0.0637   -1.3962 H   0  0  0  0  0  0  0  0  0  0  0  0
    2.5099    1.2717   -0.2007 H   0  0  0  0  0  0  0  0  0  0  0  0
    2.1123   -0.2818    1.6626 H   0  0  0  0  0  0  0  0  0  0  0  0
    1.0024   -1.6726    1.5537 H   0  0  0  0  0  0  0  0  0  0  0  0
    2.4042   -1.6010    0.4793 H   0  0  0  0  0  0  0  0  0  0  0  0
    0.5123   -1.8343   -1.6164 H   0  0  0  0  0  0  0  0  0  0  0  0
   -0.1277    0.2778   -2.8054 H   0  0  0  0  0  0  0  0  0  0  0  0
   -1.7210   -0.4069   -2.3403 H   0  0  0  0  0  0  0  0  0  0  0  0
   -2.0695    1.4048   -0.8798 H   0  0  0  0  0  0  0  0  0  0  0  0
   -0.4823    2.0863   -1.3450 H   0  0  0  0  0  0  0  0  0  0  0  0
    0.4185    1.3776    2.2608 H   0  0  0  0  0  0  0  0  0  0  0  0
   -1.0025    2.2917    1.6324 H   0  0  0  0  0  0  0  0  0  0  0  0
    0.6215    2.5251    0.8866 H   0  0  0  0  0  0  0  0  0  0  0  0
   -2.4192   -0.0746    0.8011 H   0  0  0  0  0  0  0  0  0  0  0  0
   -1.8285   -1.3810    2.5005 H   0  0  0  0  0  0  0  0  0  0  0  0
   -0.7296   -2.5137    0.4558 H   0  0  0  0  0  0  0  0  0  0  0  0
   -2.0339   -1.9096   -0.6092 H   0  0  0  0  0  0  0  0  0  0  0  0
  1  2  1  0
  2  3  1  0
  2  4  1  0
  4  5  1  0
  5  6  1  0
  6  7  1  0
  7  8  1  0
  7  9  1  0
  9 10  1  0
  9 11  1  0
  7  2  1  0
 11  4  1  0
  1 12  1  0
  1 13  1  0
  1 14  1  0
  3 15  1  0
  3 16  1  0
  3 17  1  0
  4 18  1  0
  5 19  1  0
  5 20  1  0
  6 21  1  0
  6 22  1  0
  8 23  1  0
  8 24  1  0
  8 25  1  0
  9 26  1  0
 10 27  1  0
 11 28  1  0
 11 29  1  0
M  END
>  <id>  (74) 
SPI_074

>  <group>  (74) 
Spicy

>  <compound_name>  (74) 
Borneol

$$$$
SPI_075_gamma-Terpinene
     RDKit          3D

 26 26  0  0  0  0  0  0  0  0999 V2000
    3.8988   -0.0134    0.0851 C   0  0  0  0  0  0  0  0  0  0  0  0
    2.4155   -0.0736   -0.1285 C   0  0  0  0  0  0  0  0  0  0  0  0
    1.7240   -1.1657    0.2285 C   0  0  0  0  0  0  0  0  0  0  0  0
    0.2446   -1.2586   -0.0400 C   0  0  0  0  0  0  0  0  0  0  0  0
   -0.4433    0.1204    0.1298 C   0  0  0  0  0  0  0  0  0  0  0  0
    0.3634    1.1730   -0.6140 C   0  0  0  0  0  0  0  0  0  0  0  0
    1.6980    1.0998   -0.6721 C   0  0  0  0  0  0  0  0  0  0  0  0
   -1.9364    0.1184   -0.3282 C   0  0  0  0  0  0  0  0  0  0  0  0
   -2.6603    1.4008    0.1249 C   0  0  0  0  0  0  0  0  0  0  0  0
   -2.7164   -1.0971    0.2059 C   0  0  0  0  0  0  0  0  0  0  0  0
    4.1110    0.1829    1.1570 H   0  0  0  0  0  0  0  0  0  0  0  0
    4.3526    0.7965   -0.5243 H   0  0  0  0  0  0  0  0  0  0  0  0
    4.3721   -0.9742   -0.2106 H   0  0  0  0  0  0  0  0  0  0  0  0
    2.2314   -2.0160    0.6688 H   0  0  0  0  0  0  0  0  0  0  0  0
    0.0963   -1.6278   -1.0782 H   0  0  0  0  0  0  0  0  0  0  0  0
   -0.1872   -1.9984    0.6668 H   0  0  0  0  0  0  0  0  0  0  0  0
   -0.4062    0.3736    1.2133 H   0  0  0  0  0  0  0  0  0  0  0  0
   -0.1216    2.0212   -1.0769 H   0  0  0  0  0  0  0  0  0  0  0  0
    2.2543    1.9000   -1.1443 H   0  0  0  0  0  0  0  0  0  0  0  0
   -1.9708    0.0761   -1.4399 H   0  0  0  0  0  0  0  0  0  0  0  0
   -2.2007    2.3071   -0.3161 H   0  0  0  0  0  0  0  0  0  0  0  0
   -2.6367    1.4915    1.2322 H   0  0  0  0  0  0  0  0  0  0  0  0
   -3.7208    1.3821   -0.2061 H   0  0  0  0  0  0  0  0  0  0  0  0
   -3.7953   -1.0098   -0.0448 H   0  0  0  0  0  0  0  0  0  0  0  0
   -2.6122   -1.1742    1.3095 H   0  0  0  0  0  0  0  0  0  0  0  0
   -2.3540   -2.0345   -0.2652 H   0  0  0  0  0  0  0  0  0  0  0  0
  1  2  1  0
  2  3  2  0
  3  4  1  0
  4  5  1  0
  5  6  1  0
  6  7  2  0
  5  8  1  0
  8  9  1  0
  8 10  1  0
  7  2  1  0
  1 11  1  0
  1 12  1  0
  1 13  1  0
  3 14  1  0
  4 15  1  0
  4 16  1  0
  5 17  1  0
  6 18  1  0
  7 19  1  0
  8 20  1  0
  9 21  1  0
  9 22  1  0
  9 23  1  0
 10 24  1  0
 10 25  1  0
 10 26  1  0
M  END
>  <id>  (75) 
SPI_075

>  <group>  (75) 
Spicy

>  <compound_name>  (75) 
gamma-Terpinene

$$$$
SPI_076_p-Cymene
     RDKit          3D

 24 24  0  0  0  0  0  0  0  0999 V2000
   -2.3632   -1.1662    1.2246 C   0  0  0  0  0  0  0  0  0  0  0  0
   -1.9949    0.0342    0.3447 C   0  0  0  0  0  0  0  0  0  0  0  0
   -2.6942   -0.0450   -1.0176 C   0  0  0  0  0  0  0  0  0  0  0  0
   -0.4909    0.1513    0.1817 C   0  0  0  0  0  0  0  0  0  0  0  0
    0.2544   -0.8667   -0.4428 C   0  0  0  0  0  0  0  0  0  0  0  0
    1.6396   -0.7464   -0.5850 C   0  0  0  0  0  0  0  0  0  0  0  0
    2.3027    0.3972   -0.1178 C   0  0  0  0  0  0  0  0  0  0  0  0
    3.7940    0.5074   -0.2354 C   0  0  0  0  0  0  0  0  0  0  0  0
    1.5678    1.4055    0.5218 C   0  0  0  0  0  0  0  0  0  0  0  0
    0.1823    1.2869    0.6650 C   0  0  0  0  0  0  0  0  0  0  0  0
   -2.0752   -2.1228    0.7391 H   0  0  0  0  0  0  0  0  0  0  0  0
   -3.4587   -1.1802    1.4090 H   0  0  0  0  0  0  0  0  0  0  0  0
   -1.8473   -1.0913    2.2057 H   0  0  0  0  0  0  0  0  0  0  0  0
   -2.3835    0.9432    0.8562 H   0  0  0  0  0  0  0  0  0  0  0  0
   -3.7966   -0.0335   -0.8799 H   0  0  0  0  0  0  0  0  0  0  0  0
   -2.4164   -0.9747   -1.5579 H   0  0  0  0  0  0  0  0  0  0  0  0
   -2.4134    0.8308   -1.6409 H   0  0  0  0  0  0  0  0  0  0  0  0
   -0.2339   -1.7569   -0.8176 H   0  0  0  0  0  0  0  0  0  0  0  0
    2.1949   -1.5456   -1.0605 H   0  0  0  0  0  0  0  0  0  0  0  0
    4.1031    1.5712   -0.3179 H   0  0  0  0  0  0  0  0  0  0  0  0
    4.1563   -0.0261   -1.1399 H   0  0  0  0  0  0  0  0  0  0  0  0
    4.2690    0.0609    0.6630 H   0  0  0  0  0  0  0  0  0  0  0  0
    2.0672    2.2848    0.9098 H   0  0  0  0  0  0  0  0  0  0  0  0
   -0.3632    2.0823    1.1572 H   0  0  0  0  0  0  0  0  0  0  0  0
  1  2  1  0
  2  3  1  0
  2  4  1  0
  4  5  1  0
  5  6  2  0
  6  7  1  0
  7  8  1  0
  7  9  2  0
  9 10  1  0
 10  4  2  0
  1 11  1  0
  1 12  1  0
  1 13  1  0
  2 14  1  0
  3 15  1  0
  3 16  1  0
  3 17  1  0
  5 18  1  0
  6 19  1  0
  8 20  1  0
  8 21  1  0
  8 22  1  0
  9 23  1  0
 10 24  1  0
M  END
>  <id>  (76) 
SPI_076

>  <group>  (76) 
Spicy

>  <compound_name>  (76) 
p-Cymene

$$$$
SPI_077_Myrcene
     RDKit          3D

 26 25  0  0  0  0  0  0  0  0999 V2000
   -3.4800   -0.0862   -0.0151 C   0  0  0  0  0  0  0  0  0  0  0  0
   -2.0572   -0.2985    0.4251 C   0  0  0  0  0  0  0  0  0  0  0  0
   -1.5973    0.3437    1.5090 C   0  0  0  0  0  0  0  0  0  0  0  0
   -1.1407   -1.1923   -0.3806 C   0  0  0  0  0  0  0  0  0  0  0  0
   -0.5163   -0.4438   -1.5682 C   0  0  0  0  0  0  0  0  0  0  0  0
    0.3764    0.6912   -1.1311 C   0  0  0  0  0  0  0  0  0  0  0  0
    1.5986    0.5495   -0.5775 C   0  0  0  0  0  0  0  0  0  0  0  0
    2.3393    1.7900   -0.1415 C   0  0  0  0  0  0  0  0  0  0  0  0
    2.2118   -0.7910   -0.3636 C   0  0  0  0  0  0  0  0  0  0  0  0
    3.2431   -0.9994    0.4553 C   0  0  0  0  0  0  0  0  0  0  0  0
   -3.7000   -0.6578   -0.9413 H   0  0  0  0  0  0  0  0  0  0  0  0
   -3.6539    0.9915   -0.2195 H   0  0  0  0  0  0  0  0  0  0  0  0
   -4.1748   -0.4243    0.7824 H   0  0  0  0  0  0  0  0  0  0  0  0
   -2.2449    1.0006    2.0820 H   0  0  0  0  0  0  0  0  0  0  0  0
   -0.5680    0.2239    1.8343 H   0  0  0  0  0  0  0  0  0  0  0  0
   -0.3515   -1.6275    0.2690 H   0  0  0  0  0  0  0  0  0  0  0  0
   -1.7264   -2.0510   -0.7737 H   0  0  0  0  0  0  0  0  0  0  0  0
   -1.3347   -0.0292   -2.1964 H   0  0  0  0  0  0  0  0  0  0  0  0
    0.0457   -1.1491   -2.2158 H   0  0  0  0  0  0  0  0  0  0  0  0
   -0.0223    1.6887   -1.2784 H   0  0  0  0  0  0  0  0  0  0  0  0
    1.9283    2.7094   -0.6116 H   0  0  0  0  0  0  0  0  0  0  0  0
    3.4076    1.7196   -0.4361 H   0  0  0  0  0  0  0  0  0  0  0  0
    2.2678    1.8956    0.9613 H   0  0  0  0  0  0  0  0  0  0  0  0
    1.8131   -1.6543   -0.8785 H   0  0  0  0  0  0  0  0  0  0  0  0
    3.6437   -1.9983    0.5710 H   0  0  0  0  0  0  0  0  0  0  0  0
    3.6926   -0.2007    1.0295 H   0  0  0  0  0  0  0  0  0  0  0  0
  1  2  1  0
  2  3  2  0
  2  4  1  0
  4  5  1  0
  5  6  1  0
  6  7  2  3
  7  8  1  0
  7  9  1  0
  9 10  2  0
  1 11  1  0
  1 12  1  0
  1 13  1  0
  3 14  1  0
  3 15  1  0
  4 16  1  0
  4 17  1  0
  5 18  1  0
  5 19  1  0
  6 20  1  0
  8 21  1  0
  8 22  1  0
  8 23  1  0
  9 24  1  0
 10 25  1  0
 10 26  1  0
M  END
>  <id>  (77) 
SPI_077

>  <group>  (77) 
Spicy

>  <compound_name>  (77) 
Myrcene

$$$$
SPI_078_Guaiacol
     RDKit          3D

 17 17  0  0  0  0  0  0  0  0999 V2000
    2.8299   -0.3685   -0.0722 C   0  0  0  0  0  0  0  0  0  0  0  0
    1.7486    0.5578   -0.0733 O   0  0  0  0  0  0  0  0  0  0  0  0
    0.3940    0.1962   -0.0066 C   0  0  0  0  0  0  0  0  0  0  0  0
   -0.0220   -1.1485    0.0689 C   0  0  0  0  0  0  0  0  0  0  0  0
   -1.3826   -1.4627    0.1337 C   0  0  0  0  0  0  0  0  0  0  0  0
   -2.3383   -0.4449    0.1238 C   0  0  0  0  0  0  0  0  0  0  0  0
   -1.9360    0.8905    0.0492 C   0  0  0  0  0  0  0  0  0  0  0  0
   -0.5728    1.2140   -0.0161 C   0  0  0  0  0  0  0  0  0  0  0  0
   -0.1700    2.5464   -0.0906 O   0  0  0  0  0  0  0  0  0  0  0  0
    2.8238   -0.9616    0.8667 H   0  0  0  0  0  0  0  0  0  0  0  0
    3.7861    0.1905   -0.1328 H   0  0  0  0  0  0  0  0  0  0  0  0
    2.7560   -1.0428   -0.9514 H   0  0  0  0  0  0  0  0  0  0  0  0
    0.6968   -1.9563    0.0782 H   0  0  0  0  0  0  0  0  0  0  0  0
   -1.6962   -2.4971    0.1916 H   0  0  0  0  0  0  0  0  0  0  0  0
   -3.3911   -0.6909    0.1740 H   0  0  0  0  0  0  0  0  0  0  0  0
   -2.6834    1.6737    0.0420 H   0  0  0  0  0  0  0  0  0  0  0  0
   -0.8428    3.3041   -0.0994 H   0  0  0  0  0  0  0  0  0  0  0  0
  1  2  1  0
  2  3  1  0
  3  4  2  0
  4  5  1  0
  5  6  2  0
  6  7  1  0
  7  8  2  0
  8  9  1  0
  8  3  1  0
  1 10  1  0
  1 11  1  0
  1 12  1  0
  4 13  1  0
  5 14  1  0
  6 15  1  0
  7 16  1  0
  9 17  1  0
M  END
>  <id>  (78) 
SPI_078

>  <group>  (78) 
Spicy

>  <compound_name>  (78) 
Guaiacol

$$$$
SPI_079_4-Vinylguaiacol
     RDKit          3D

 21 21  0  0  0  0  0  0  0  0999 V2000
    3.0005    1.3566    0.2960 C   0  0  0  0  0  0  0  0  0  0  0  0
    2.6421    0.1328   -0.0951 C   0  0  0  0  0  0  0  0  0  0  0  0
    1.2561   -0.3931   -0.0238 C   0  0  0  0  0  0  0  0  0  0  0  0
    1.0647   -1.7818   -0.0825 C   0  0  0  0  0  0  0  0  0  0  0  0
   -0.2196   -2.3250   -0.0254 C   0  0  0  0  0  0  0  0  0  0  0  0
   -1.3364   -1.4882    0.0815 C   0  0  0  0  0  0  0  0  0  0  0  0
   -2.6185   -2.0321    0.1407 O   0  0  0  0  0  0  0  0  0  0  0  0
   -1.1711   -0.0974    0.1258 C   0  0  0  0  0  0  0  0  0  0  0  0
   -2.3174    0.7074    0.2232 O   0  0  0  0  0  0  0  0  0  0  0  0
   -2.3033    2.1302    0.2801 C   0  0  0  0  0  0  0  0  0  0  0  0
    0.1280    0.4475    0.0684 C   0  0  0  0  0  0  0  0  0  0  0  0
    4.0375    1.6582    0.2248 H   0  0  0  0  0  0  0  0  0  0  0  0
    2.2976    2.0615    0.7156 H   0  0  0  0  0  0  0  0  0  0  0  0
    3.4240   -0.5290   -0.4491 H   0  0  0  0  0  0  0  0  0  0  0  0
    1.9135   -2.4501   -0.1644 H   0  0  0  0  0  0  0  0  0  0  0  0
   -0.3463   -3.3995   -0.0645 H   0  0  0  0  0  0  0  0  0  0  0  0
   -2.7720   -3.0333    0.1098 H   0  0  0  0  0  0  0  0  0  0  0  0
   -1.7350    2.4713    1.1711 H   0  0  0  0  0  0  0  0  0  0  0  0
   -3.3460    2.4998    0.3614 H   0  0  0  0  0  0  0  0  0  0  0  0
   -1.8508    2.5450   -0.6453 H   0  0  0  0  0  0  0  0  0  0  0  0
    0.2527    1.5192    0.0721 H   0  0  0  0  0  0  0  0  0  0  0  0
  1  2  2  0
  2  3  1  0
  3  4  1  0
  4  5  2  0
  5  6  1  0
  6  7  1  0
  6  8  2  0
  8  9  1  0
  9 10  1  0
  8 11  1  0
 11  3  2  0
  1 12  1  0
  1 13  1  0
  2 14  1  0
  4 15  1  0
  5 16  1  0
  7 17  1  0
 10 18  1  0
 10 19  1  0
 10 20  1  0
 11 21  1  0
M  END
>  <id>  (79) 
SPI_079

>  <group>  (79) 
Spicy

>  <compound_name>  (79) 
4-Vinylguaiacol

$$$$
SPI_080_Zingerone
     RDKit          3D

 28 28  0  0  0  0  0  0  0  0999 V2000
    2.9212    0.7763   -1.7563 C   0  0  0  0  0  0  0  0  0  0  0  0
    2.4369   -0.5525   -1.5910 O   0  0  0  0  0  0  0  0  0  0  0  0
    1.4690   -0.9356   -0.6488 C   0  0  0  0  0  0  0  0  0  0  0  0
    0.8938   -0.0119    0.2467 C   0  0  0  0  0  0  0  0  0  0  0  0
   -0.0765   -0.4243    1.1738 C   0  0  0  0  0  0  0  0  0  0  0  0
   -0.7280    0.5788    2.0925 C   0  0  0  0  0  0  0  0  0  0  0  0
   -2.0401    1.1109    1.5025 C   0  0  0  0  0  0  0  0  0  0  0  0
   -1.7985    1.9340    0.2628 C   0  0  0  0  0  0  0  0  0  0  0  0
   -1.2739    3.0328    0.3628 O   0  0  0  0  0  0  0  0  0  0  0  0
   -2.1853    1.4290   -1.0955 C   0  0  0  0  0  0  0  0  0  0  0  0
   -0.4813   -1.7662    1.1962 C   0  0  0  0  0  0  0  0  0  0  0  0
    0.0891   -2.6878    0.3169 C   0  0  0  0  0  0  0  0  0  0  0  0
    1.0605   -2.2814   -0.6032 C   0  0  0  0  0  0  0  0  0  0  0  0
    1.6064   -3.2297   -1.4682 O   0  0  0  0  0  0  0  0  0  0  0  0
    3.6714    0.7895   -2.5733 H   0  0  0  0  0  0  0  0  0  0  0  0
    2.0862    1.4557   -2.0294 H   0  0  0  0  0  0  0  0  0  0  0  0
    3.4084    1.1245   -0.8211 H   0  0  0  0  0  0  0  0  0  0  0  0
    1.1869    1.0292    0.2235 H   0  0  0  0  0  0  0  0  0  0  0  0
   -0.0352    1.4236    2.3017 H   0  0  0  0  0  0  0  0  0  0  0  0
   -0.9449    0.0959    3.0703 H   0  0  0  0  0  0  0  0  0  0  0  0
   -2.5472    1.7476    2.2592 H   0  0  0  0  0  0  0  0  0  0  0  0
   -2.7209    0.2595    1.2846 H   0  0  0  0  0  0  0  0  0  0  0  0
   -2.9319    2.1141   -1.5486 H   0  0  0  0  0  0  0  0  0  0  0  0
   -1.2856    1.3894   -1.7449 H   0  0  0  0  0  0  0  0  0  0  0  0
   -2.6220    0.4100   -1.0382 H   0  0  0  0  0  0  0  0  0  0  0  0
   -1.2417   -2.0973    1.8927 H   0  0  0  0  0  0  0  0  0  0  0  0
   -0.2287   -3.7223    0.3462 H   0  0  0  0  0  0  0  0  0  0  0  0
    2.3120   -2.9916   -2.1547 H   0  0  0  0  0  0  0  0  0  0  0  0
  1  2  1  0
  2  3  1  0
  3  4  1  0
  4  5  2  0
  5  6  1  0
  6  7  1  0
  7  8  1  0
  8  9  2  0
  8 10  1  0
  5 11  1  0
 11 12  2  0
 12 13  1  0
 13 14  1  0
 13  3  2  0
  1 15  1  0
  1 16  1  0
  1 17  1  0
  4 18  1  0
  6 19  1  0
  6 20  1  0
  7 21  1  0
  7 22  1  0
 10 23  1  0
 10 24  1  0
 10 25  1  0
 11 26  1  0
 12 27  1  0
 14 28  1  0
M  END
>  <id>  (80) 
SPI_080

>  <group>  (80) 
Spicy

>  <compound_name>  (80) 
Zingerone

$$$$
SPI_081_Capsaicin
     RDKit          3D

 49 49  0  0  0  0  0  0  0  0999 V2000
    3.1601   -2.6274    0.2388 C   0  0  0  0  0  0  0  0  0  0  0  0
    2.6022   -2.3910    1.5275 O   0  0  0  0  0  0  0  0  0  0  0  0
    2.4282   -1.1205    2.0992 C   0  0  0  0  0  0  0  0  0  0  0  0
    2.8004    0.0582    1.4231 C   0  0  0  0  0  0  0  0  0  0  0  0
    2.6034    1.3149    2.0160 C   0  0  0  0  0  0  0  0  0  0  0  0
    2.9258    2.5653    1.2447 C   0  0  0  0  0  0  0  0  0  0  0  0
    1.9416    2.7541    0.1831 N   0  0  0  0  0  0  0  0  0  0  0  0
    0.5916    3.1509    0.4598 C   0  0  0  0  0  0  0  0  0  0  0  0
    0.3072    3.7173    1.5499 O   0  0  0  0  0  0  0  0  0  0  0  0
   -0.4978    2.8667   -0.5331 C   0  0  0  0  0  0  0  0  0  0  0  0
   -1.5374    1.8755    0.0172 C   0  0  0  0  0  0  0  0  0  0  0  0
   -0.9523    0.5304    0.4977 C   0  0  0  0  0  0  0  0  0  0  0  0
   -0.1981   -0.2589   -0.5855 C   0  0  0  0  0  0  0  0  0  0  0  0
   -1.0529   -0.5456   -1.7896 C   0  0  0  0  0  0  0  0  0  0  0  0
   -2.0953   -1.3880   -1.7281 C   0  0  0  0  0  0  0  0  0  0  0  0
   -2.9546   -1.6631   -2.9396 C   0  0  0  0  0  0  0  0  0  0  0  0
   -3.8428   -2.8885   -2.6992 C   0  0  0  0  0  0  0  0  0  0  0  0
   -3.8146   -0.4391   -3.2762 C   0  0  0  0  0  0  0  0  0  0  0  0
    2.0282    1.3932    3.2917 C   0  0  0  0  0  0  0  0  0  0  0  0
    1.6641    0.2292    3.9705 C   0  0  0  0  0  0  0  0  0  0  0  0
    1.8587   -1.0246    3.3823 C   0  0  0  0  0  0  0  0  0  0  0  0
    1.4758   -2.1653    4.0875 O   0  0  0  0  0  0  0  0  0  0  0  0
    4.2017   -2.2444    0.1978 H   0  0  0  0  0  0  0  0  0  0  0  0
    2.5415   -2.1374   -0.5423 H   0  0  0  0  0  0  0  0  0  0  0  0
    3.1754   -3.7194    0.0455 H   0  0  0  0  0  0  0  0  0  0  0  0
    3.2260    0.0106    0.4295 H   0  0  0  0  0  0  0  0  0  0  0  0
    2.9504    3.4597    1.9047 H   0  0  0  0  0  0  0  0  0  0  0  0
    3.9371    2.4637    0.7945 H   0  0  0  0  0  0  0  0  0  0  0  0
    2.1990    2.4605   -0.7862 H   0  0  0  0  0  0  0  0  0  0  0  0
   -1.0100    3.8216   -0.7784 H   0  0  0  0  0  0  0  0  0  0  0  0
   -0.0709    2.4775   -1.4814 H   0  0  0  0  0  0  0  0  0  0  0  0
   -2.3027    1.6878   -0.7666 H   0  0  0  0  0  0  0  0  0  0  0  0
   -2.0664    2.3505    0.8721 H   0  0  0  0  0  0  0  0  0  0  0  0
   -0.2674    0.7082    1.3534 H   0  0  0  0  0  0  0  0  0  0  0  0
   -1.7846   -0.0946    0.8875 H   0  0  0  0  0  0  0  0  0  0  0  0
    0.1560   -1.2195   -0.1532 H   0  0  0  0  0  0  0  0  0  0  0  0
    0.7043    0.3040   -0.9022 H   0  0  0  0  0  0  0  0  0  0  0  0
   -0.8019   -0.0610   -2.7293 H   0  0  0  0  0  0  0  0  0  0  0  0
   -2.3164   -1.8930   -0.7905 H   0  0  0  0  0  0  0  0  0  0  0  0
   -2.2942   -1.8863   -3.8070 H   0  0  0  0  0  0  0  0  0  0  0  0
   -4.4412   -3.1120   -3.6082 H   0  0  0  0  0  0  0  0  0  0  0  0
   -4.5358   -2.7117   -1.8481 H   0  0  0  0  0  0  0  0  0  0  0  0
   -3.2142   -3.7763   -2.4723 H   0  0  0  0  0  0  0  0  0  0  0  0
   -3.1701    0.4354   -3.5077 H   0  0  0  0  0  0  0  0  0  0  0  0
   -4.4764   -0.1792   -2.4218 H   0  0  0  0  0  0  0  0  0  0  0  0
   -4.4437   -0.6463   -4.1681 H   0  0  0  0  0  0  0  0  0  0  0  0
    1.8512    2.3548    3.7571 H   0  0  0  0  0  0  0  0  0  0  0  0
    1.2201    0.3012    4.9553 H   0  0  0  0  0  0  0  0  0  0  0  0
    1.5915   -3.0979    3.7096 H   0  0  0  0  0  0  0  0  0  0  0  0
  1  2  1  0
  2  3  1  0
  3  4  1  0
  4  5  2  0
  5  6  1  0
  6  7  1  0
  7  8  1  0
  8  9  2  0
  8 10  1  0
 10 11  1  0
 11 12  1  0
 12 13  1  0
 13 14  1  0
 14 15  2  3
 15 16  1  0
 16 17  1  0
 16 18  1  0
  5 19  1  0
 19 20  2  0
 20 21  1  0
 21 22  1  0
 21  3  2  0
  1 23  1  0
  1 24  1  0
  1 25  1  0
  4 26  1  0
  6 27  1  0
  6 28  1  0
  7 29  1  0
 10 30  1  0
 10 31  1  0
 11 32  1  0
 11 33  1  0
 12 34  1  0
 12 35  1  0
 13 36  1  0
 13 37  1  0
 14 38  1  0
 15 39  1  0
 16 40  1  0
 17 41  1  0
 17 42  1  0
 17 43  1  0
 18 44  1  0
 18 45  1  0
 18 46  1  0
 19 47  1  0
 20 48  1  0
 22 49  1  0
M  END
>  <id>  (81) 
SPI_081

>  <group>  (81) 
Spicy

>  <compound_name>  (81) 
Capsaicin

$$$$
SPI_082_Piperine
     RDKit          3D

 40 42  0  0  0  0  0  0  0  0999 V2000
   -2.5670   -1.8894   -1.7010 O   0  0  0  0  0  0  0  0  0  0  0  0
   -2.4805   -1.0025   -0.8068 C   0  0  0  0  0  0  0  0  0  0  0  0
   -1.1462   -0.4847   -0.4234 C   0  0  0  0  0  0  0  0  0  0  0  0
   -0.0138   -0.9897   -0.9249 C   0  0  0  0  0  0  0  0  0  0  0  0
    1.2982   -0.4491   -0.5283 C   0  0  0  0  0  0  0  0  0  0  0  0
    2.4288   -0.9485   -1.0425 C   0  0  0  0  0  0  0  0  0  0  0  0
    3.7841   -0.4511   -0.7006 C   0  0  0  0  0  0  0  0  0  0  0  0
    4.8586   -0.7627   -1.5749 C   0  0  0  0  0  0  0  0  0  0  0  0
    6.1658   -0.3254   -1.2951 C   0  0  0  0  0  0  0  0  0  0  0  0
    6.3696    0.4100   -0.1336 C   0  0  0  0  0  0  0  0  0  0  0  0
    7.5490    0.9390    0.3541 O   0  0  0  0  0  0  0  0  0  0  0  0
    7.2569    1.6070    1.5894 C   0  0  0  0  0  0  0  0  0  0  0  0
    5.8465    1.4316    1.7838 O   0  0  0  0  0  0  0  0  0  0  0  0
    5.3554    0.7045    0.7165 C   0  0  0  0  0  0  0  0  0  0  0  0
    4.0471    0.2931    0.4784 C   0  0  0  0  0  0  0  0  0  0  0  0
   -3.6836   -0.5022   -0.1835 N   0  0  0  0  0  0  0  0  0  0  0  0
   -4.9900   -0.7553   -0.8111 C   0  0  0  0  0  0  0  0  0  0  0  0
   -5.9261    0.4348   -0.5782 C   0  0  0  0  0  0  0  0  0  0  0  0
   -6.0754    0.7983    0.9139 C   0  0  0  0  0  0  0  0  0  0  0  0
   -4.9978    0.1737    1.8141 C   0  0  0  0  0  0  0  0  0  0  0  0
   -3.6245    0.1560    1.1332 C   0  0  0  0  0  0  0  0  0  0  0  0
   -1.0861    0.3367    0.2793 H   0  0  0  0  0  0  0  0  0  0  0  0
   -0.0515   -1.8112   -1.6315 H   0  0  0  0  0  0  0  0  0  0  0  0
    1.3257    0.3770    0.1695 H   0  0  0  0  0  0  0  0  0  0  0  0
    2.3579   -1.7390   -1.7818 H   0  0  0  0  0  0  0  0  0  0  0  0
    4.6816   -1.3379   -2.4755 H   0  0  0  0  0  0  0  0  0  0  0  0
    6.9873   -0.5558   -1.9605 H   0  0  0  0  0  0  0  0  0  0  0  0
    7.8199    1.1358    2.4222 H   0  0  0  0  0  0  0  0  0  0  0  0
    7.5010    2.6869    1.5080 H   0  0  0  0  0  0  0  0  0  0  0  0
    3.2795    0.5289    1.2014 H   0  0  0  0  0  0  0  0  0  0  0  0
   -4.8791   -0.8976   -1.9083 H   0  0  0  0  0  0  0  0  0  0  0  0
   -5.4347   -1.6799   -0.3833 H   0  0  0  0  0  0  0  0  0  0  0  0
   -6.9247    0.2094   -1.0115 H   0  0  0  0  0  0  0  0  0  0  0  0
   -5.5165    1.3124   -1.1256 H   0  0  0  0  0  0  0  0  0  0  0  0
   -6.0398    1.9048    1.0198 H   0  0  0  0  0  0  0  0  0  0  0  0
   -7.0728    0.4675    1.2772 H   0  0  0  0  0  0  0  0  0  0  0  0
   -4.9346    0.7400    2.7684 H   0  0  0  0  0  0  0  0  0  0  0  0
   -5.2887   -0.8710    2.0616 H   0  0  0  0  0  0  0  0  0  0  0  0
   -3.2586    1.1980    1.0084 H   0  0  0  0  0  0  0  0  0  0  0  0
   -2.9210   -0.3923    1.7973 H   0  0  0  0  0  0  0  0  0  0  0  0
  1  2  2  0
  2  3  1  0
  3  4  2  3
  4  5  1  0
  5  6  2  3
  6  7  1  0
  7  8  1  0
  8  9  2  0
  9 10  1  0
 10 11  1  0
 11 12  1  0
 12 13  1  0
 13 14  1  0
 14 15  1  0
  2 16  1  0
 16 17  1  0
 17 18  1  0
 18 19  1  0
 19 20  1  0
 20 21  1  0
 15  7  2  0
 21 16  1  0
 14 10  2  0
  3 22  1  0
  4 23  1  0
  5 24  1  0
  6 25  1  0
  8 26  1  0
  9 27  1  0
 12 28  1  0
 12 29  1  0
 15 30  1  0
 17 31  1  0
 17 32  1  0
 18 33  1  0
 18 34  1  0
 19 35  1  0
 19 36  1  0
 20 37  1  0
 20 38  1  0
 21 39  1  0
 21 40  1  0
M  END
>  <id>  (82) 
SPI_082

>  <group>  (82) 
Spicy

>  <compound_name>  (82) 
Piperine

$$$$
SPI_083_Allyl isothiocyanate
     RDKit          3D

 11 10  0  0  0  0  0  0  0  0999 V2000
   -1.4188    0.9137   -0.3315 C   0  0  0  0  0  0  0  0  0  0  0  0
   -1.1276   -0.3852   -0.2189 C   0  0  0  0  0  0  0  0  0  0  0  0
    0.2915   -0.8652   -0.1437 C   0  0  0  0  0  0  0  0  0  0  0  0
    0.8916   -0.4418    1.1166 N   0  0  0  0  0  0  0  0  0  0  0  0
    1.9438    0.2727    1.1524 C   0  0  0  0  0  0  0  0  0  0  0  0
    3.2754    1.1785    1.1964 S   0  0  0  0  0  0  0  0  0  0  0  0
   -2.4535    1.2355   -0.3886 H   0  0  0  0  0  0  0  0  0  0  0  0
   -0.6316    1.6610   -0.3677 H   0  0  0  0  0  0  0  0  0  0  0  0
   -1.9353   -1.1107   -0.1908 H   0  0  0  0  0  0  0  0  0  0  0  0
    0.3000   -1.9747   -0.1856 H   0  0  0  0  0  0  0  0  0  0  0  0
    0.8644   -0.4838   -1.0200 H   0  0  0  0  0  0  0  0  0  0  0  0
  1  2  2  0
  2  3  1  0
  3  4  1  0
  4  5  2  0
  5  6  2  0
  1  7  1  0
  1  8  1  0
  2  9  1  0
  3 10  1  0
  3 11  1  0
M  END
>  <id>  (83) 
SPI_083

>  <group>  (83) 
Spicy

>  <compound_name>  (83) 
Allyl isothiocyanate

$$$$
SPI_084_Methyl eugenol
     RDKit          3D

 27 27  0  0  0  0  0  0  0  0999 V2000
   -1.9549    2.7721   -1.1317 C   0  0  0  0  0  0  0  0  0  0  0  0
   -2.1626    1.4545   -0.6334 O   0  0  0  0  0  0  0  0  0  0  0  0
   -1.1503    0.6302   -0.1165 C   0  0  0  0  0  0  0  0  0  0  0  0
    0.1925    1.0504   -0.0459 C   0  0  0  0  0  0  0  0  0  0  0  0
    1.1788    0.2032    0.4810 C   0  0  0  0  0  0  0  0  0  0  0  0
    2.6161    0.6503    0.5250 C   0  0  0  0  0  0  0  0  0  0  0  0
    3.2636    0.4966   -0.8227 C   0  0  0  0  0  0  0  0  0  0  0  0
    3.5641   -0.7049   -1.3245 C   0  0  0  0  0  0  0  0  0  0  0  0
    0.8212   -1.0773    0.9235 C   0  0  0  0  0  0  0  0  0  0  0  0
   -0.5071   -1.5010    0.8574 C   0  0  0  0  0  0  0  0  0  0  0  0
   -1.5018   -0.6505    0.3386 C   0  0  0  0  0  0  0  0  0  0  0  0
   -2.8478   -1.0415    0.2569 O   0  0  0  0  0  0  0  0  0  0  0  0
   -3.3471   -2.3066    0.6784 C   0  0  0  0  0  0  0  0  0  0  0  0
   -1.2547    2.7486   -1.9934 H   0  0  0  0  0  0  0  0  0  0  0  0
   -1.5525    3.4251   -0.3287 H   0  0  0  0  0  0  0  0  0  0  0  0
   -2.9249    3.1872   -1.4739 H   0  0  0  0  0  0  0  0  0  0  0  0
    0.4804    2.0317   -0.3993 H   0  0  0  0  0  0  0  0  0  0  0  0
    2.6581    1.7196    0.8256 H   0  0  0  0  0  0  0  0  0  0  0  0
    3.1898    0.0776    1.2865 H   0  0  0  0  0  0  0  0  0  0  0  0
    3.5029    1.3863   -1.3976 H   0  0  0  0  0  0  0  0  0  0  0  0
    3.3448   -1.6126   -0.7707 H   0  0  0  0  0  0  0  0  0  0  0  0
    4.0355   -0.7839   -2.2986 H   0  0  0  0  0  0  0  0  0  0  0  0
    1.5720   -1.7499    1.3194 H   0  0  0  0  0  0  0  0  0  0  0  0
   -0.7499   -2.4939    1.2103 H   0  0  0  0  0  0  0  0  0  0  0  0
   -4.4412   -2.3423    0.4992 H   0  0  0  0  0  0  0  0  0  0  0  0
   -2.8650   -3.1205    0.0968 H   0  0  0  0  0  0  0  0  0  0  0  0
   -3.1599   -2.4487    1.7638 H   0  0  0  0  0  0  0  0  0  0  0  0
  1  2  1  0
  2  3  1  0
  3  4  1  0
  4  5  2  0
  5  6  1  0
  6  7  1  0
  7  8  2  0
  5  9  1  0
  9 10  2  0
 10 11  1  0
 11 12  1  0
 12 13  1  0
 11  3  2  0
  1 14  1  0
  1 15  1  0
  1 16  1  0
  4 17  1  0
  6 18  1  0
  6 19  1  0
  7 20  1  0
  8 21  1  0
  8 22  1  0
  9 23  1  0
 10 24  1  0
 13 25  1  0
 13 26  1  0
 13 27  1  0
M  END
>  <id>  (84) 
SPI_084

>  <group>  (84) 
Spicy

>  <compound_name>  (84) 
Methyl eugenol

$$$$
SPI_085_Syringol
     RDKit          3D

 21 21  0  0  0  0  0  0  0  0999 V2000
    3.0380   -1.1204    0.1430 C   0  0  0  0  0  0  0  0  0  0  0  0
    2.5747    0.2230    0.2331 O   0  0  0  0  0  0  0  0  0  0  0  0
    1.2329    0.6108    0.0987 C   0  0  0  0  0  0  0  0  0  0  0  0
    0.1986   -0.3146   -0.1431 C   0  0  0  0  0  0  0  0  0  0  0  0
   -1.1358    0.1219   -0.2710 C   0  0  0  0  0  0  0  0  0  0  0  0
   -2.1948   -0.7676   -0.5121 O   0  0  0  0  0  0  0  0  0  0  0  0
   -2.0491   -2.1772   -0.6519 C   0  0  0  0  0  0  0  0  0  0  0  0
   -1.4261    1.4887   -0.1553 C   0  0  0  0  0  0  0  0  0  0  0  0
   -2.7435    1.9265   -0.2809 O   0  0  0  0  0  0  0  0  0  0  0  0
   -0.3970    2.4078    0.0851 C   0  0  0  0  0  0  0  0  0  0  0  0
    0.9223    1.9695    0.2108 C   0  0  0  0  0  0  0  0  0  0  0  0
    2.8057   -1.5382   -0.8594 H   0  0  0  0  0  0  0  0  0  0  0  0
    4.1377   -1.1350    0.2874 H   0  0  0  0  0  0  0  0  0  0  0  0
    2.5674   -1.7407    0.9349 H   0  0  0  0  0  0  0  0  0  0  0  0
    0.4301   -1.3656   -0.2310 H   0  0  0  0  0  0  0  0  0  0  0  0
   -3.0458   -2.6281   -0.8351 H   0  0  0  0  0  0  0  0  0  0  0  0
   -1.3900   -2.4093   -1.5150 H   0  0  0  0  0  0  0  0  0  0  0  0
   -1.6283   -2.6119    0.2794 H   0  0  0  0  0  0  0  0  0  0  0  0
   -2.9864    2.9072   -0.2024 H   0  0  0  0  0  0  0  0  0  0  0  0
   -0.6193    3.4635    0.1748 H   0  0  0  0  0  0  0  0  0  0  0  0
    1.7089    2.6899    0.3966 H   0  0  0  0  0  0  0  0  0  0  0  0
  1  2  1  0
  2  3  1  0
  3  4  2  0
  4  5  1  0
  5  6  1  0
  6  7  1  0
  5  8  2  0
  8  9  1  0
  8 10  1  0
 10 11  2  0
 11  3  1  0
  1 12  1  0
  1 13  1  0
  1 14  1  0
  4 15  1  0
  7 16  1  0
  7 17  1  0
  7 18  1  0
  9 19  1  0
 10 20  1  0
 11 21  1  0
M  END
>  <id>  (85) 
SPI_085

>  <group>  (85) 
Spicy

>  <compound_name>  (85) 
Syringol

$$$$
SPI_086_Vanillyl alcohol
     RDKit          3D

 21 21  0  0  0  0  0  0  0  0999 V2000
    3.0750   -0.0784   -0.8348 C   0  0  0  0  0  0  0  0  0  0  0  0
    2.3457   -0.5038    0.3118 O   0  0  0  0  0  0  0  0  0  0  0  0
    0.9513   -0.4129    0.4455 C   0  0  0  0  0  0  0  0  0  0  0  0
    0.1326    0.1222   -0.5692 C   0  0  0  0  0  0  0  0  0  0  0  0
   -1.2596    0.1878   -0.4008 C   0  0  0  0  0  0  0  0  0  0  0  0
   -2.1256    0.7933   -1.4714 C   0  0  0  0  0  0  0  0  0  0  0  0
   -2.3161    2.1586   -1.2208 O   0  0  0  0  0  0  0  0  0  0  0  0
   -1.8315   -0.2588    0.7987 C   0  0  0  0  0  0  0  0  0  0  0  0
   -1.0254   -0.7904    1.8071 C   0  0  0  0  0  0  0  0  0  0  0  0
    0.3627   -0.8706    1.6334 C   0  0  0  0  0  0  0  0  0  0  0  0
    1.1666   -1.4023    2.6403 O   0  0  0  0  0  0  0  0  0  0  0  0
    2.9275    1.0100   -0.9990 H   0  0  0  0  0  0  0  0  0  0  0  0
    2.7469   -0.6487   -1.7294 H   0  0  0  0  0  0  0  0  0  0  0  0
    4.1550   -0.2691   -0.6687 H   0  0  0  0  0  0  0  0  0  0  0  0
    0.5681    0.4891   -1.4891 H   0  0  0  0  0  0  0  0  0  0  0  0
   -3.1163    0.2909   -1.4837 H   0  0  0  0  0  0  0  0  0  0  0  0
   -1.6743    0.6418   -2.4787 H   0  0  0  0  0  0  0  0  0  0  0  0
   -1.4734    2.6150   -1.4807 H   0  0  0  0  0  0  0  0  0  0  0  0
   -2.9018   -0.1957    0.9527 H   0  0  0  0  0  0  0  0  0  0  0  0
   -1.4803   -1.1373    2.7262 H   0  0  0  0  0  0  0  0  0  0  0  0
    0.7727   -1.7407    3.5105 H   0  0  0  0  0  0  0  0  0  0  0  0
  1  2  1  0
  2  3  1  0
  3  4  1  0
  4  5  2  0
  5  6  1  0
  6  7  1  0
  5  8  1  0
  8  9  2  0
  9 10  1  0
 10 11  1  0
 10  3  2  0
  1 12  1  0
  1 13  1  0
  1 14  1  0
  4 15  1  0
  6 16  1  0
  6 17  1  0
  7 18  1  0
  8 19  1  0
  9 20  1  0
 11 21  1  0
M  END
>  <id>  (86) 
SPI_086

>  <group>  (86) 
Spicy

>  <compound_name>  (86) 
Vanillyl alcohol

$$$$
SPI_087_Vanillyl acetate
     RDKit          3D

 26 26  0  0  0  0  0  0  0  0999 V2000
    4.0818   -1.1813    1.3379 C   0  0  0  0  0  0  0  0  0  0  0  0
    2.9720   -0.3562    1.8947 C   0  0  0  0  0  0  0  0  0  0  0  0
    2.9459   -0.0949    3.1282 O   0  0  0  0  0  0  0  0  0  0  0  0
    1.9474    0.0798    1.0503 O   0  0  0  0  0  0  0  0  0  0  0  0
    0.8465    0.8535    1.5148 C   0  0  0  0  0  0  0  0  0  0  0  0
   -0.0683    1.1537    0.3633 C   0  0  0  0  0  0  0  0  0  0  0  0
   -1.0770    0.2449    0.0067 C   0  0  0  0  0  0  0  0  0  0  0  0
   -1.9151    0.5032   -1.0965 C   0  0  0  0  0  0  0  0  0  0  0  0
   -2.9407   -0.3757   -1.4791 O   0  0  0  0  0  0  0  0  0  0  0  0
   -3.2456   -1.5971   -0.8136 C   0  0  0  0  0  0  0  0  0  0  0  0
   -1.7245    1.6738   -1.8449 C   0  0  0  0  0  0  0  0  0  0  0  0
   -2.5511    1.9361   -2.9362 O   0  0  0  0  0  0  0  0  0  0  0  0
   -0.7065    2.5722   -1.4987 C   0  0  0  0  0  0  0  0  0  0  0  0
    0.1212    2.3109   -0.4052 C   0  0  0  0  0  0  0  0  0  0  0  0
    3.8619   -2.2565    1.5029 H   0  0  0  0  0  0  0  0  0  0  0  0
    5.0384   -0.9211    1.8383 H   0  0  0  0  0  0  0  0  0  0  0  0
    4.1845   -0.9933    0.2486 H   0  0  0  0  0  0  0  0  0  0  0  0
    0.2976    0.2903    2.3013 H   0  0  0  0  0  0  0  0  0  0  0  0
    1.2175    1.7993    1.9673 H   0  0  0  0  0  0  0  0  0  0  0  0
   -1.2013   -0.6574    0.5908 H   0  0  0  0  0  0  0  0  0  0  0  0
   -4.0992   -2.0858   -1.3262 H   0  0  0  0  0  0  0  0  0  0  0  0
   -2.3709   -2.2804   -0.8498 H   0  0  0  0  0  0  0  0  0  0  0  0
   -3.5316   -1.3965    0.2406 H   0  0  0  0  0  0  0  0  0  0  0  0
   -2.4389    2.7721   -3.4979 H   0  0  0  0  0  0  0  0  0  0  0  0
   -0.5538    3.4727   -2.0799 H   0  0  0  0  0  0  0  0  0  0  0  0
    0.9097    3.0111   -0.1577 H   0  0  0  0  0  0  0  0  0  0  0  0
  1  2  1  0
  2  3  2  0
  2  4  1  0
  4  5  1  0
  5  6  1  0
  6  7  2  0
  7  8  1  0
  8  9  1  0
  9 10  1  0
  8 11  2  0
 11 12  1  0
 11 13  1  0
 13 14  2  0
 14  6  1  0
  1 15  1  0
  1 16  1  0
  1 17  1  0
  5 18  1  0
  5 19  1  0
  7 20  1  0
 10 21  1  0
 10 22  1  0
 10 23  1  0
 12 24  1  0
 13 25  1  0
 14 26  1  0
M  END
>  <id>  (87) 
SPI_087

>  <group>  (87) 
Spicy

>  <compound_name>  (87) 
Vanillyl acetate

$$$$
SPI_088_Safrole
     RDKit          3D

 22 23  0  0  0  0  0  0  0  0999 V2000
    2.7735    1.5312   -0.9443 C   0  0  0  0  0  0  0  0  0  0  0  0
    2.8974    0.2118   -0.7731 C   0  0  0  0  0  0  0  0  0  0  0  0
    2.2736   -0.4950    0.3974 C   0  0  0  0  0  0  0  0  0  0  0  0
    0.7781   -0.5604    0.2455 C   0  0  0  0  0  0  0  0  0  0  0  0
    0.1911   -1.5403   -0.5966 C   0  0  0  0  0  0  0  0  0  0  0  0
   -1.2044   -1.5923   -0.7671 C   0  0  0  0  0  0  0  0  0  0  0  0
   -1.9765   -0.6521   -0.0924 C   0  0  0  0  0  0  0  0  0  0  0  0
   -3.3495   -0.4994   -0.1019 O   0  0  0  0  0  0  0  0  0  0  0  0
   -3.6775    0.6112    0.7450 C   0  0  0  0  0  0  0  0  0  0  0  0
   -2.4184    1.0875    1.2407 O   0  0  0  0  0  0  0  0  0  0  0  0
   -1.4218    0.2930    0.7078 C   0  0  0  0  0  0  0  0  0  0  0  0
   -0.0465    0.3793    0.9045 C   0  0  0  0  0  0  0  0  0  0  0  0
    3.2394    2.0142   -1.7970 H   0  0  0  0  0  0  0  0  0  0  0  0
    2.2112    2.1359   -0.2393 H   0  0  0  0  0  0  0  0  0  0  0  0
    3.4733   -0.3643   -1.4914 H   0  0  0  0  0  0  0  0  0  0  0  0
    2.6811   -1.5275    0.4547 H   0  0  0  0  0  0  0  0  0  0  0  0
    2.5558    0.0186    1.3427 H   0  0  0  0  0  0  0  0  0  0  0  0
    0.8150   -2.2561   -1.1173 H   0  0  0  0  0  0  0  0  0  0  0  0
   -1.6628   -2.3365   -1.4050 H   0  0  0  0  0  0  0  0  0  0  0  0
   -4.1828    1.4055    0.1566 H   0  0  0  0  0  0  0  0  0  0  0  0
   -4.3181    0.2747    1.5870 H   0  0  0  0  0  0  0  0  0  0  0  0
    0.3689    1.1483    1.5433 H   0  0  0  0  0  0  0  0  0  0  0  0
  1  2  2  0
  2  3  1  0
  3  4  1  0
  4  5  1  0
  5  6  2  0
  6  7  1  0
  7  8  1  0
  8  9  1  0
  9 10  1  0
 10 11  1  0
 11 12  1  0
 12  4  2  0
 11  7  2  0
  1 13  1  0
  1 14  1  0
  2 15  1  0
  3 16  1  0
  3 17  1  0
  5 18  1  0
  6 19  1  0
  9 20  1  0
  9 21  1  0
 12 22  1  0
M  END
>  <id>  (88) 
SPI_088

>  <group>  (88) 
Spicy

>  <compound_name>  (88) 
Safrole

$$$$
SPI_089_Chavicol
     RDKit          3D

 20 20  0  0  0  0  0  0  0  0999 V2000
    2.7187    1.0404   -0.8317 C   0  0  0  0  0  0  0  0  0  0  0  0
    2.5179   -0.2570   -0.5823 C   0  0  0  0  0  0  0  0  0  0  0  0
    1.6924   -0.7185    0.5858 C   0  0  0  0  0  0  0  0  0  0  0  0
    0.2313   -0.4437    0.3489 C   0  0  0  0  0  0  0  0  0  0  0  0
   -0.5269   -1.3046   -0.4616 C   0  0  0  0  0  0  0  0  0  0  0  0
   -1.8775   -1.0367   -0.7048 C   0  0  0  0  0  0  0  0  0  0  0  0
   -2.4816    0.0955   -0.1486 C   0  0  0  0  0  0  0  0  0  0  0  0
   -3.8280    0.3501   -0.3994 O   0  0  0  0  0  0  0  0  0  0  0  0
   -1.7274    0.9632    0.6530 C   0  0  0  0  0  0  0  0  0  0  0  0
   -0.3766    0.6974    0.8979 C   0  0  0  0  0  0  0  0  0  0  0  0
    3.3236    1.3428   -1.6802 H   0  0  0  0  0  0  0  0  0  0  0  0
    2.2853    1.8056   -0.1949 H   0  0  0  0  0  0  0  0  0  0  0  0
    2.9720   -0.9984   -1.2331 H   0  0  0  0  0  0  0  0  0  0  0  0
    1.8420   -1.8112    0.7239 H   0  0  0  0  0  0  0  0  0  0  0  0
    2.0456   -0.2230    1.5168 H   0  0  0  0  0  0  0  0  0  0  0  0
   -0.0709   -2.1812   -0.9053 H   0  0  0  0  0  0  0  0  0  0  0  0
   -2.4544   -1.7079   -1.3282 H   0  0  0  0  0  0  0  0  0  0  0  0
   -4.2944    1.1620   -0.0117 H   0  0  0  0  0  0  0  0  0  0  0  0
   -2.1857    1.8441    1.0841 H   0  0  0  0  0  0  0  0  0  0  0  0
    0.1946    1.3810    1.5137 H   0  0  0  0  0  0  0  0  0  0  0  0
  1  2  2  0
  2  3  1  0
  3  4  1  0
  4  5  1  0
  5  6  2  0
  6  7  1  0
  7  8  1  0
  7  9  2  0
  9 10  1  0
 10  4  2  0
  1 11  1  0
  1 12  1  0
  2 13  1  0
  3 14  1  0
  3 15  1  0
  5 16  1  0
  6 17  1  0
  8 18  1  0
  9 19  1  0
 10 20  1  0
M  END
>  <id>  (89) 
SPI_089

>  <group>  (89) 
Spicy

>  <compound_name>  (89) 
Chavicol

$$$$
SPI_090_Benzyl isothiocyanate
     RDKit          3D

 17 17  0  0  0  0  0  0  0  0999 V2000
    3.2988    0.4848   -2.2766 S   0  0  0  0  0  0  0  0  0  0  0  0
    2.8860    0.4649   -0.7196 C   0  0  0  0  0  0  0  0  0  0  0  0
    2.5562    0.4477    0.5098 N   0  0  0  0  0  0  0  0  0  0  0  0
    1.5930   -0.5144    1.0338 C   0  0  0  0  0  0  0  0  0  0  0  0
    0.2163   -0.2386    0.4888 C   0  0  0  0  0  0  0  0  0  0  0  0
   -0.5835    0.7627    1.0637 C   0  0  0  0  0  0  0  0  0  0  0  0
   -1.8481    1.0429    0.5364 C   0  0  0  0  0  0  0  0  0  0  0  0
   -2.3176    0.3334   -0.5725 C   0  0  0  0  0  0  0  0  0  0  0  0
   -1.5217   -0.6549   -1.1583 C   0  0  0  0  0  0  0  0  0  0  0  0
   -0.2568   -0.9385   -0.6338 C   0  0  0  0  0  0  0  0  0  0  0  0
    1.9189   -1.5497    0.7888 H   0  0  0  0  0  0  0  0  0  0  0  0
    1.5740   -0.4320    2.1414 H   0  0  0  0  0  0  0  0  0  0  0  0
   -0.2271    1.3256    1.9177 H   0  0  0  0  0  0  0  0  0  0  0  0
   -2.4627    1.8125    0.9853 H   0  0  0  0  0  0  0  0  0  0  0  0
   -3.2959    0.5525   -0.9804 H   0  0  0  0  0  0  0  0  0  0  0  0
   -1.8835   -1.1990   -2.0212 H   0  0  0  0  0  0  0  0  0  0  0  0
    0.3539   -1.6998   -1.1034 H   0  0  0  0  0  0  0  0  0  0  0  0
  1  2  2  0
  2  3  2  0
  3  4  1  0
  4  5  1  0
  5  6  2  0
  6  7  1  0
  7  8  2  0
  8  9  1  0
  9 10  2  0
 10  5  1  0
  4 11  1  0
  4 12  1  0
  6 13  1  0
  7 14  1  0
  8 15  1  0
  9 16  1  0
 10 17  1  0
M  END
>  <id>  (90) 
SPI_090

>  <group>  (90) 
Spicy

>  <compound_name>  (90) 
Benzyl isothiocyanate

$$$$
